
---------- Begin Simulation Statistics ----------
simSeconds                                   1.035195                       # Number of seconds simulated (Second)
simTicks                                 1035194626154                       # Number of ticks simulated (Tick)
finalTick                                1035194626154                       # Number of ticks from beginning of simulation (restored from checkpoints and never reset) (Tick)
simFreq                                  1000000000000                       # The number of ticks per simulated second ((Tick/Second))
hostSeconds                                    554.77                       # Real time elapsed on the host (Second)
hostTickRate                               1865991260                       # The number of ticks simulated per host second (ticks/s) ((Tick/Second))
hostMemory                                    8647844                       # Number of bytes of host memory used (Byte)
simInsts                                     93077001                       # Number of instructions simulated (Count)
simOps                                      158952268                       # Number of ops (including micro ops) simulated (Count)
hostInstRate                                   167776                       # Simulator instruction rate (inst/s) ((Count/Second))
hostOpRate                                     286519                       # Simulator op (including micro ops) rate (op/s) ((Count/Second))
system.clk_domain.clock                         13333                       # Clock period in ticks (Tick)
system.clk_domain.voltage_domain.voltage            1                       # Voltage in Volts (Volt)
system.cpu.numCycles                         77641539                       # Number of cpu cycles simulated (Cycle)
system.cpu.cpi                               0.834165                       # CPI: cycles per instruction (core level) ((Cycle/Count))
system.cpu.ipc                               1.198804                       # IPC: instructions per cycle (core level) ((Count/Cycle))
system.cpu.numWorkItemsStarted                      0                       # Number of work items this cpu started (Count)
system.cpu.numWorkItemsCompleted                    0                       # Number of work items this cpu completed (Count)
system.cpu.instsAdded                       188937873                       # Number of instructions added to the IQ (excludes non-spec) (Count)
system.cpu.nonSpecInstsAdded                  1460753                       # Number of non-speculative instructions added to the IQ (Count)
system.cpu.instsIssued                      178364050                       # Number of instructions issued (Count)
system.cpu.squashedInstsIssued                 473545                       # Number of squashed instructions issued (Count)
system.cpu.squashedInstsExamined             31446344                       # Number of squashed instructions iterated over during squash; mainly for profiling (Count)
system.cpu.squashedOperandsExamined          58989713                       # Number of squashed operands that are examined and possibly removed from graph (Count)
system.cpu.squashedNonSpecRemoved               44227                       # Number of squashed non-spec instructions that were removed (Count)
system.cpu.numIssuedDist::samples            77538783                       # Number of insts issued each cycle (Count)
system.cpu.numIssuedDist::mean               2.300320                       # Number of insts issued each cycle (Count)
system.cpu.numIssuedDist::stdev              2.406782                       # Number of insts issued each cycle (Count)
system.cpu.numIssuedDist::underflows                0      0.00%      0.00% # Number of insts issued each cycle (Count)
system.cpu.numIssuedDist::0                  28530718     36.80%     36.80% # Number of insts issued each cycle (Count)
system.cpu.numIssuedDist::1                   9387686     12.11%     48.90% # Number of insts issued each cycle (Count)
system.cpu.numIssuedDist::2                   7165421      9.24%     58.14% # Number of insts issued each cycle (Count)
system.cpu.numIssuedDist::3                   9215938     11.89%     70.03% # Number of insts issued each cycle (Count)
system.cpu.numIssuedDist::4                   7292766      9.41%     79.43% # Number of insts issued each cycle (Count)
system.cpu.numIssuedDist::5                   6825897      8.80%     88.24% # Number of insts issued each cycle (Count)
system.cpu.numIssuedDist::6                   3201935      4.13%     92.37% # Number of insts issued each cycle (Count)
system.cpu.numIssuedDist::7                   2861827      3.69%     96.06% # Number of insts issued each cycle (Count)
system.cpu.numIssuedDist::8                   3056595      3.94%    100.00% # Number of insts issued each cycle (Count)
system.cpu.numIssuedDist::overflows                 0      0.00%    100.00% # Number of insts issued each cycle (Count)
system.cpu.numIssuedDist::min_value                 0                       # Number of insts issued each cycle (Count)
system.cpu.numIssuedDist::max_value                 8                       # Number of insts issued each cycle (Count)
system.cpu.numIssuedDist::total              77538783                       # Number of insts issued each cycle (Count)
system.cpu.statFuBusy::No_OpClass                   0      0.00%      0.00% # attempts to use FU when none available (Count)
system.cpu.statFuBusy::IntAlu                  425479      7.80%      7.80% # attempts to use FU when none available (Count)
system.cpu.statFuBusy::IntMult                      0      0.00%      7.80% # attempts to use FU when none available (Count)
system.cpu.statFuBusy::IntDiv                       0      0.00%      7.80% # attempts to use FU when none available (Count)
system.cpu.statFuBusy::FloatAdd                     0      0.00%      7.80% # attempts to use FU when none available (Count)
system.cpu.statFuBusy::FloatCmp                     0      0.00%      7.80% # attempts to use FU when none available (Count)
system.cpu.statFuBusy::FloatCvt                     0      0.00%      7.80% # attempts to use FU when none available (Count)
system.cpu.statFuBusy::FloatMult                    0      0.00%      7.80% # attempts to use FU when none available (Count)
system.cpu.statFuBusy::FloatMultAcc                 0      0.00%      7.80% # attempts to use FU when none available (Count)
system.cpu.statFuBusy::FloatDiv                     0      0.00%      7.80% # attempts to use FU when none available (Count)
system.cpu.statFuBusy::FloatMisc                    0      0.00%      7.80% # attempts to use FU when none available (Count)
system.cpu.statFuBusy::FloatSqrt                    0      0.00%      7.80% # attempts to use FU when none available (Count)
system.cpu.statFuBusy::SimdAdd                      0      0.00%      7.80% # attempts to use FU when none available (Count)
system.cpu.statFuBusy::SimdAddAcc                   0      0.00%      7.80% # attempts to use FU when none available (Count)
system.cpu.statFuBusy::SimdAlu                   1168      0.02%      7.83% # attempts to use FU when none available (Count)
system.cpu.statFuBusy::SimdCmp                      1      0.00%      7.83% # attempts to use FU when none available (Count)
system.cpu.statFuBusy::SimdCvt                    158      0.00%      7.83% # attempts to use FU when none available (Count)
system.cpu.statFuBusy::SimdMisc                    21      0.00%      7.83% # attempts to use FU when none available (Count)
system.cpu.statFuBusy::SimdMult                     0      0.00%      7.83% # attempts to use FU when none available (Count)
system.cpu.statFuBusy::SimdMultAcc                  0      0.00%      7.83% # attempts to use FU when none available (Count)
system.cpu.statFuBusy::SimdMatMultAcc               0      0.00%      7.83% # attempts to use FU when none available (Count)
system.cpu.statFuBusy::SimdShift                   44      0.00%      7.83% # attempts to use FU when none available (Count)
system.cpu.statFuBusy::SimdShiftAcc                 0      0.00%      7.83% # attempts to use FU when none available (Count)
system.cpu.statFuBusy::SimdDiv                      0      0.00%      7.83% # attempts to use FU when none available (Count)
system.cpu.statFuBusy::SimdSqrt                     0      0.00%      7.83% # attempts to use FU when none available (Count)
system.cpu.statFuBusy::SimdFloatAdd                 0      0.00%      7.83% # attempts to use FU when none available (Count)
system.cpu.statFuBusy::SimdFloatAlu                 0      0.00%      7.83% # attempts to use FU when none available (Count)
system.cpu.statFuBusy::SimdFloatCmp                 0      0.00%      7.83% # attempts to use FU when none available (Count)
system.cpu.statFuBusy::SimdFloatCvt                 0      0.00%      7.83% # attempts to use FU when none available (Count)
system.cpu.statFuBusy::SimdFloatDiv                 0      0.00%      7.83% # attempts to use FU when none available (Count)
system.cpu.statFuBusy::SimdFloatMisc                0      0.00%      7.83% # attempts to use FU when none available (Count)
system.cpu.statFuBusy::SimdFloatMult                0      0.00%      7.83% # attempts to use FU when none available (Count)
system.cpu.statFuBusy::SimdFloatMultAcc             0      0.00%      7.83% # attempts to use FU when none available (Count)
system.cpu.statFuBusy::SimdFloatMatMultAcc            0      0.00%      7.83% # attempts to use FU when none available (Count)
system.cpu.statFuBusy::SimdFloatSqrt                0      0.00%      7.83% # attempts to use FU when none available (Count)
system.cpu.statFuBusy::SimdReduceAdd                0      0.00%      7.83% # attempts to use FU when none available (Count)
system.cpu.statFuBusy::SimdReduceAlu                0      0.00%      7.83% # attempts to use FU when none available (Count)
system.cpu.statFuBusy::SimdReduceCmp                0      0.00%      7.83% # attempts to use FU when none available (Count)
system.cpu.statFuBusy::SimdFloatReduceAdd            0      0.00%      7.83% # attempts to use FU when none available (Count)
system.cpu.statFuBusy::SimdFloatReduceCmp            0      0.00%      7.83% # attempts to use FU when none available (Count)
system.cpu.statFuBusy::SimdAes                      0      0.00%      7.83% # attempts to use FU when none available (Count)
system.cpu.statFuBusy::SimdAesMix                   0      0.00%      7.83% # attempts to use FU when none available (Count)
system.cpu.statFuBusy::SimdSha1Hash                 0      0.00%      7.83% # attempts to use FU when none available (Count)
system.cpu.statFuBusy::SimdSha1Hash2                0      0.00%      7.83% # attempts to use FU when none available (Count)
system.cpu.statFuBusy::SimdSha256Hash               0      0.00%      7.83% # attempts to use FU when none available (Count)
system.cpu.statFuBusy::SimdSha256Hash2              0      0.00%      7.83% # attempts to use FU when none available (Count)
system.cpu.statFuBusy::SimdShaSigma2                0      0.00%      7.83% # attempts to use FU when none available (Count)
system.cpu.statFuBusy::SimdShaSigma3                0      0.00%      7.83% # attempts to use FU when none available (Count)
system.cpu.statFuBusy::SimdPredAlu                  0      0.00%      7.83% # attempts to use FU when none available (Count)
system.cpu.statFuBusy::Matrix                       0      0.00%      7.83% # attempts to use FU when none available (Count)
system.cpu.statFuBusy::MatrixMov                    0      0.00%      7.83% # attempts to use FU when none available (Count)
system.cpu.statFuBusy::MatrixOP                     0      0.00%      7.83% # attempts to use FU when none available (Count)
system.cpu.statFuBusy::MemRead                2539067     46.57%     54.41% # attempts to use FU when none available (Count)
system.cpu.statFuBusy::MemWrite               2483761     45.56%     99.97% # attempts to use FU when none available (Count)
system.cpu.statFuBusy::FloatMemRead               739      0.01%     99.98% # attempts to use FU when none available (Count)
system.cpu.statFuBusy::FloatMemWrite             1131      0.02%    100.00% # attempts to use FU when none available (Count)
system.cpu.statFuBusy::IprAccess                    0      0.00%    100.00% # attempts to use FU when none available (Count)
system.cpu.statFuBusy::InstPrefetch                 0      0.00%    100.00% # attempts to use FU when none available (Count)
system.cpu.statFuBusy::SimdUnitStrideLoad            0      0.00%    100.00% # attempts to use FU when none available (Count)
system.cpu.statFuBusy::SimdUnitStrideStore            0      0.00%    100.00% # attempts to use FU when none available (Count)
system.cpu.statFuBusy::SimdUnitStrideMaskLoad            0      0.00%    100.00% # attempts to use FU when none available (Count)
system.cpu.statFuBusy::SimdUnitStrideMaskStore            0      0.00%    100.00% # attempts to use FU when none available (Count)
system.cpu.statFuBusy::SimdStridedLoad              0      0.00%    100.00% # attempts to use FU when none available (Count)
system.cpu.statFuBusy::SimdStridedStore             0      0.00%    100.00% # attempts to use FU when none available (Count)
system.cpu.statFuBusy::SimdIndexedLoad              0      0.00%    100.00% # attempts to use FU when none available (Count)
system.cpu.statFuBusy::SimdIndexedStore             0      0.00%    100.00% # attempts to use FU when none available (Count)
system.cpu.statFuBusy::SimdWholeRegisterLoad            0      0.00%    100.00% # attempts to use FU when none available (Count)
system.cpu.statFuBusy::SimdWholeRegisterStore            0      0.00%    100.00% # attempts to use FU when none available (Count)
system.cpu.statFuBusy::SimdUnitStrideFaultOnlyFirstLoad            0      0.00%    100.00% # attempts to use FU when none available (Count)
system.cpu.statFuBusy::SimdUnitStrideSegmentedLoad            0      0.00%    100.00% # attempts to use FU when none available (Count)
system.cpu.statFuBusy::SimdUnitStrideSegmentedStore            0      0.00%    100.00% # attempts to use FU when none available (Count)
system.cpu.statFuBusy::SimdExt                      0      0.00%    100.00% # attempts to use FU when none available (Count)
system.cpu.statFuBusy::SimdFloatExt                 0      0.00%    100.00% # attempts to use FU when none available (Count)
system.cpu.statFuBusy::SimdConfig                   0      0.00%    100.00% # attempts to use FU when none available (Count)
system.cpu.statIssuedInstType_0::No_OpClass      1670977      0.94%      0.94% # Number of instructions issued per FU type, per thread (Count)
system.cpu.statIssuedInstType_0::IntAlu     120653534     67.64%     68.58% # Number of instructions issued per FU type, per thread (Count)
system.cpu.statIssuedInstType_0::IntMult       660947      0.37%     68.95% # Number of instructions issued per FU type, per thread (Count)
system.cpu.statIssuedInstType_0::IntDiv        100805      0.06%     69.01% # Number of instructions issued per FU type, per thread (Count)
system.cpu.statIssuedInstType_0::FloatAdd        70221      0.04%     69.05% # Number of instructions issued per FU type, per thread (Count)
system.cpu.statIssuedInstType_0::FloatCmp            0      0.00%     69.05% # Number of instructions issued per FU type, per thread (Count)
system.cpu.statIssuedInstType_0::FloatCvt         1264      0.00%     69.05% # Number of instructions issued per FU type, per thread (Count)
system.cpu.statIssuedInstType_0::FloatMult            0      0.00%     69.05% # Number of instructions issued per FU type, per thread (Count)
system.cpu.statIssuedInstType_0::FloatMultAcc            0      0.00%     69.05% # Number of instructions issued per FU type, per thread (Count)
system.cpu.statIssuedInstType_0::FloatDiv            0      0.00%     69.05% # Number of instructions issued per FU type, per thread (Count)
system.cpu.statIssuedInstType_0::FloatMisc            0      0.00%     69.05% # Number of instructions issued per FU type, per thread (Count)
system.cpu.statIssuedInstType_0::FloatSqrt            0      0.00%     69.05% # Number of instructions issued per FU type, per thread (Count)
system.cpu.statIssuedInstType_0::SimdAdd         7192      0.00%     69.05% # Number of instructions issued per FU type, per thread (Count)
system.cpu.statIssuedInstType_0::SimdAddAcc            0      0.00%     69.05% # Number of instructions issued per FU type, per thread (Count)
system.cpu.statIssuedInstType_0::SimdAlu        64914      0.04%     69.09% # Number of instructions issued per FU type, per thread (Count)
system.cpu.statIssuedInstType_0::SimdCmp           11      0.00%     69.09% # Number of instructions issued per FU type, per thread (Count)
system.cpu.statIssuedInstType_0::SimdCvt        16293      0.01%     69.10% # Number of instructions issued per FU type, per thread (Count)
system.cpu.statIssuedInstType_0::SimdMisc       392984      0.22%     69.32% # Number of instructions issued per FU type, per thread (Count)
system.cpu.statIssuedInstType_0::SimdMult            0      0.00%     69.32% # Number of instructions issued per FU type, per thread (Count)
system.cpu.statIssuedInstType_0::SimdMultAcc            0      0.00%     69.32% # Number of instructions issued per FU type, per thread (Count)
system.cpu.statIssuedInstType_0::SimdMatMultAcc            0      0.00%     69.32% # Number of instructions issued per FU type, per thread (Count)
system.cpu.statIssuedInstType_0::SimdShift         3757      0.00%     69.32% # Number of instructions issued per FU type, per thread (Count)
system.cpu.statIssuedInstType_0::SimdShiftAcc            0      0.00%     69.32% # Number of instructions issued per FU type, per thread (Count)
system.cpu.statIssuedInstType_0::SimdDiv            0      0.00%     69.32% # Number of instructions issued per FU type, per thread (Count)
system.cpu.statIssuedInstType_0::SimdSqrt            0      0.00%     69.32% # Number of instructions issued per FU type, per thread (Count)
system.cpu.statIssuedInstType_0::SimdFloatAdd         3471      0.00%     69.32% # Number of instructions issued per FU type, per thread (Count)
system.cpu.statIssuedInstType_0::SimdFloatAlu            0      0.00%     69.32% # Number of instructions issued per FU type, per thread (Count)
system.cpu.statIssuedInstType_0::SimdFloatCmp            0      0.00%     69.32% # Number of instructions issued per FU type, per thread (Count)
system.cpu.statIssuedInstType_0::SimdFloatCvt        25680      0.01%     69.34% # Number of instructions issued per FU type, per thread (Count)
system.cpu.statIssuedInstType_0::SimdFloatDiv          348      0.00%     69.34% # Number of instructions issued per FU type, per thread (Count)
system.cpu.statIssuedInstType_0::SimdFloatMisc            0      0.00%     69.34% # Number of instructions issued per FU type, per thread (Count)
system.cpu.statIssuedInstType_0::SimdFloatMult            0      0.00%     69.34% # Number of instructions issued per FU type, per thread (Count)
system.cpu.statIssuedInstType_0::SimdFloatMultAcc            0      0.00%     69.34% # Number of instructions issued per FU type, per thread (Count)
system.cpu.statIssuedInstType_0::SimdFloatMatMultAcc            0      0.00%     69.34% # Number of instructions issued per FU type, per thread (Count)
system.cpu.statIssuedInstType_0::SimdFloatSqrt         3123      0.00%     69.34% # Number of instructions issued per FU type, per thread (Count)
system.cpu.statIssuedInstType_0::SimdReduceAdd            0      0.00%     69.34% # Number of instructions issued per FU type, per thread (Count)
system.cpu.statIssuedInstType_0::SimdReduceAlu            0      0.00%     69.34% # Number of instructions issued per FU type, per thread (Count)
system.cpu.statIssuedInstType_0::SimdReduceCmp            0      0.00%     69.34% # Number of instructions issued per FU type, per thread (Count)
system.cpu.statIssuedInstType_0::SimdFloatReduceAdd            0      0.00%     69.34% # Number of instructions issued per FU type, per thread (Count)
system.cpu.statIssuedInstType_0::SimdFloatReduceCmp            0      0.00%     69.34% # Number of instructions issued per FU type, per thread (Count)
system.cpu.statIssuedInstType_0::SimdAes            0      0.00%     69.34% # Number of instructions issued per FU type, per thread (Count)
system.cpu.statIssuedInstType_0::SimdAesMix            0      0.00%     69.34% # Number of instructions issued per FU type, per thread (Count)
system.cpu.statIssuedInstType_0::SimdSha1Hash            0      0.00%     69.34% # Number of instructions issued per FU type, per thread (Count)
system.cpu.statIssuedInstType_0::SimdSha1Hash2            0      0.00%     69.34% # Number of instructions issued per FU type, per thread (Count)
system.cpu.statIssuedInstType_0::SimdSha256Hash            0      0.00%     69.34% # Number of instructions issued per FU type, per thread (Count)
system.cpu.statIssuedInstType_0::SimdSha256Hash2            0      0.00%     69.34% # Number of instructions issued per FU type, per thread (Count)
system.cpu.statIssuedInstType_0::SimdShaSigma2            0      0.00%     69.34% # Number of instructions issued per FU type, per thread (Count)
system.cpu.statIssuedInstType_0::SimdShaSigma3            0      0.00%     69.34% # Number of instructions issued per FU type, per thread (Count)
system.cpu.statIssuedInstType_0::SimdPredAlu            0      0.00%     69.34% # Number of instructions issued per FU type, per thread (Count)
system.cpu.statIssuedInstType_0::Matrix             0      0.00%     69.34% # Number of instructions issued per FU type, per thread (Count)
system.cpu.statIssuedInstType_0::MatrixMov            0      0.00%     69.34% # Number of instructions issued per FU type, per thread (Count)
system.cpu.statIssuedInstType_0::MatrixOP            0      0.00%     69.34% # Number of instructions issued per FU type, per thread (Count)
system.cpu.statIssuedInstType_0::MemRead     37193415     20.85%     90.19% # Number of instructions issued per FU type, per thread (Count)
system.cpu.statIssuedInstType_0::MemWrite     17418053      9.77%     99.96% # Number of instructions issued per FU type, per thread (Count)
system.cpu.statIssuedInstType_0::FloatMemRead        48999      0.03%     99.98% # Number of instructions issued per FU type, per thread (Count)
system.cpu.statIssuedInstType_0::FloatMemWrite        28062      0.02%    100.00% # Number of instructions issued per FU type, per thread (Count)
system.cpu.statIssuedInstType_0::IprAccess            0      0.00%    100.00% # Number of instructions issued per FU type, per thread (Count)
system.cpu.statIssuedInstType_0::InstPrefetch            0      0.00%    100.00% # Number of instructions issued per FU type, per thread (Count)
system.cpu.statIssuedInstType_0::SimdUnitStrideLoad            0      0.00%    100.00% # Number of instructions issued per FU type, per thread (Count)
system.cpu.statIssuedInstType_0::SimdUnitStrideStore            0      0.00%    100.00% # Number of instructions issued per FU type, per thread (Count)
system.cpu.statIssuedInstType_0::SimdUnitStrideMaskLoad            0      0.00%    100.00% # Number of instructions issued per FU type, per thread (Count)
system.cpu.statIssuedInstType_0::SimdUnitStrideMaskStore            0      0.00%    100.00% # Number of instructions issued per FU type, per thread (Count)
system.cpu.statIssuedInstType_0::SimdStridedLoad            0      0.00%    100.00% # Number of instructions issued per FU type, per thread (Count)
system.cpu.statIssuedInstType_0::SimdStridedStore            0      0.00%    100.00% # Number of instructions issued per FU type, per thread (Count)
system.cpu.statIssuedInstType_0::SimdIndexedLoad            0      0.00%    100.00% # Number of instructions issued per FU type, per thread (Count)
system.cpu.statIssuedInstType_0::SimdIndexedStore            0      0.00%    100.00% # Number of instructions issued per FU type, per thread (Count)
system.cpu.statIssuedInstType_0::SimdWholeRegisterLoad            0      0.00%    100.00% # Number of instructions issued per FU type, per thread (Count)
system.cpu.statIssuedInstType_0::SimdWholeRegisterStore            0      0.00%    100.00% # Number of instructions issued per FU type, per thread (Count)
system.cpu.statIssuedInstType_0::SimdUnitStrideFaultOnlyFirstLoad            0      0.00%    100.00% # Number of instructions issued per FU type, per thread (Count)
system.cpu.statIssuedInstType_0::SimdUnitStrideSegmentedLoad            0      0.00%    100.00% # Number of instructions issued per FU type, per thread (Count)
system.cpu.statIssuedInstType_0::SimdUnitStrideSegmentedStore            0      0.00%    100.00% # Number of instructions issued per FU type, per thread (Count)
system.cpu.statIssuedInstType_0::SimdExt            0      0.00%    100.00% # Number of instructions issued per FU type, per thread (Count)
system.cpu.statIssuedInstType_0::SimdFloatExt            0      0.00%    100.00% # Number of instructions issued per FU type, per thread (Count)
system.cpu.statIssuedInstType_0::SimdConfig            0      0.00%    100.00% # Number of instructions issued per FU type, per thread (Count)
system.cpu.statIssuedInstType_0::total      178364050                       # Number of instructions issued per FU type, per thread (Count)
system.cpu.issueRate                         2.297276                       # Inst issue rate ((Count/Cycle))
system.cpu.fuBusy                             5451569                       # FU busy when requested (Count)
system.cpu.fuBusyRate                        0.030564                       # FU busy rate (busy events/executed inst) ((Count/Count))
system.cpu.intInstQueueReads                438713506                       # Number of integer instruction queue reads (Count)
system.cpu.intInstQueueWrites               221293146                       # Number of integer instruction queue writes (Count)
system.cpu.intInstQueueWakeupAccesses       174710854                       # Number of integer instruction queue wakeup accesses (Count)
system.cpu.fpInstQueueReads                   1478491                       # Number of floating instruction queue reads (Count)
system.cpu.fpInstQueueWrites                   959917                       # Number of floating instruction queue writes (Count)
system.cpu.fpInstQueueWakeupAccesses           732888                       # Number of floating instruction queue wakeup accesses (Count)
system.cpu.vecInstQueueReads                        0                       # Number of vector instruction queue reads (Count)
system.cpu.vecInstQueueWrites                       0                       # Number of vector instruction queue writes (Count)
system.cpu.vecInstQueueWakeupAccesses               0                       # Number of vector instruction queue wakeup accesses (Count)
system.cpu.intAluAccesses                   181403957                       # Number of integer alu accesses (Count)
system.cpu.fpAluAccesses                       740685                       # Number of floating point alu accesses (Count)
system.cpu.vecAluAccesses                           0                       # Number of vector alu accesses (Count)
system.cpu.numSquashedInsts                   1226522                       # Number of squashed instructions skipped in execute (Count)
system.cpu.numSwp                                   0                       # Number of swp insts executed (Count)
system.cpu.timesIdled                           20786                       # Number of times that the entire CPU went into an idle state and unscheduled itself (Count)
system.cpu.idleCycles                          102756                       # Total number of cycles that the CPU has spent unscheduled due to idling (Cycle)
system.cpu.MemDepUnit__0.insertedLoads       38801003                       # Number of loads inserted to the mem dependence unit. (Count)
system.cpu.MemDepUnit__0.insertedStores      20592109                       # Number of stores inserted to the mem dependence unit. (Count)
system.cpu.MemDepUnit__0.conflictingLoads     11178378                       # Number of conflicting loads. (Count)
system.cpu.MemDepUnit__0.conflictingStores      9342863                       # Number of conflicting stores. (Count)
system.cpu.MemDepUnit__1.insertedLoads              0                       # Number of loads inserted to the mem dependence unit. (Count)
system.cpu.MemDepUnit__1.insertedStores             0                       # Number of stores inserted to the mem dependence unit. (Count)
system.cpu.MemDepUnit__1.conflictingLoads            0                       # Number of conflicting loads. (Count)
system.cpu.MemDepUnit__1.conflictingStores            0                       # Number of conflicting stores. (Count)
system.cpu.MemDepUnit__2.insertedLoads              0                       # Number of loads inserted to the mem dependence unit. (Count)
system.cpu.MemDepUnit__2.insertedStores             0                       # Number of stores inserted to the mem dependence unit. (Count)
system.cpu.MemDepUnit__2.conflictingLoads            0                       # Number of conflicting loads. (Count)
system.cpu.MemDepUnit__2.conflictingStores            0                       # Number of conflicting stores. (Count)
system.cpu.MemDepUnit__3.insertedLoads              0                       # Number of loads inserted to the mem dependence unit. (Count)
system.cpu.MemDepUnit__3.insertedStores             0                       # Number of stores inserted to the mem dependence unit. (Count)
system.cpu.MemDepUnit__3.conflictingLoads            0                       # Number of conflicting loads. (Count)
system.cpu.MemDepUnit__3.conflictingStores            0                       # Number of conflicting stores. (Count)
system.cpu.branchPred.lookups_0::NoBranch         2147      0.01%      0.01% # Number of BP lookups (Count)
system.cpu.branchPred.lookups_0::Return       2651091     14.83%     14.84% # Number of BP lookups (Count)
system.cpu.branchPred.lookups_0::CallDirect      2893942     16.18%     31.02% # Number of BP lookups (Count)
system.cpu.branchPred.lookups_0::CallIndirect         1341      0.01%     31.03% # Number of BP lookups (Count)
system.cpu.branchPred.lookups_0::DirectCond     11914871     66.63%     97.66% # Number of BP lookups (Count)
system.cpu.branchPred.lookups_0::DirectUncond       310130      1.73%     99.40% # Number of BP lookups (Count)
system.cpu.branchPred.lookups_0::IndirectCond            0      0.00%     99.40% # Number of BP lookups (Count)
system.cpu.branchPred.lookups_0::IndirectUncond       107824      0.60%    100.00% # Number of BP lookups (Count)
system.cpu.branchPred.lookups_0::total       17881346                       # Number of BP lookups (Count)
system.cpu.branchPred.squashes_0::NoBranch         1874      0.05%      0.05% # Number of branches that got squashed (completely removed) as an earlier branch was mispredicted. (Count)
system.cpu.branchPred.squashes_0::Return       621504     17.38%     17.43% # Number of branches that got squashed (completely removed) as an earlier branch was mispredicted. (Count)
system.cpu.branchPred.squashes_0::CallDirect       864954     24.19%     41.62% # Number of branches that got squashed (completely removed) as an earlier branch was mispredicted. (Count)
system.cpu.branchPred.squashes_0::CallIndirect          737      0.02%     41.64% # Number of branches that got squashed (completely removed) as an earlier branch was mispredicted. (Count)
system.cpu.branchPred.squashes_0::DirectCond      1984206     55.48%     97.12% # Number of branches that got squashed (completely removed) as an earlier branch was mispredicted. (Count)
system.cpu.branchPred.squashes_0::DirectUncond        64513      1.80%     98.92% # Number of branches that got squashed (completely removed) as an earlier branch was mispredicted. (Count)
system.cpu.branchPred.squashes_0::IndirectCond            0      0.00%     98.92% # Number of branches that got squashed (completely removed) as an earlier branch was mispredicted. (Count)
system.cpu.branchPred.squashes_0::IndirectUncond        38551      1.08%    100.00% # Number of branches that got squashed (completely removed) as an earlier branch was mispredicted. (Count)
system.cpu.branchPred.squashes_0::total       3576339                       # Number of branches that got squashed (completely removed) as an earlier branch was mispredicted. (Count)
system.cpu.branchPred.corrected_0::NoBranch          467      0.25%      0.25% # Number of branches that got corrected but not yet commited. Branches get corrected by decode or after execute. Also a branch misprediction can be detected out-of-order. Therefore, a corrected branch might not end up beeing committed in case an even earlier branch was mispredicted (Count)
system.cpu.branchPred.corrected_0::Return         1791      0.97%      1.22% # Number of branches that got corrected but not yet commited. Branches get corrected by decode or after execute. Also a branch misprediction can be detected out-of-order. Therefore, a corrected branch might not end up beeing committed in case an even earlier branch was mispredicted (Count)
system.cpu.branchPred.corrected_0::CallDirect         8591      4.66%      5.88% # Number of branches that got corrected but not yet commited. Branches get corrected by decode or after execute. Also a branch misprediction can be detected out-of-order. Therefore, a corrected branch might not end up beeing committed in case an even earlier branch was mispredicted (Count)
system.cpu.branchPred.corrected_0::CallIndirect          237      0.13%      6.01% # Number of branches that got corrected but not yet commited. Branches get corrected by decode or after execute. Also a branch misprediction can be detected out-of-order. Therefore, a corrected branch might not end up beeing committed in case an even earlier branch was mispredicted (Count)
system.cpu.branchPred.corrected_0::DirectCond       168814     91.53%     97.54% # Number of branches that got corrected but not yet commited. Branches get corrected by decode or after execute. Also a branch misprediction can be detected out-of-order. Therefore, a corrected branch might not end up beeing committed in case an even earlier branch was mispredicted (Count)
system.cpu.branchPred.corrected_0::DirectUncond         2603      1.41%     98.95% # Number of branches that got corrected but not yet commited. Branches get corrected by decode or after execute. Also a branch misprediction can be detected out-of-order. Therefore, a corrected branch might not end up beeing committed in case an even earlier branch was mispredicted (Count)
system.cpu.branchPred.corrected_0::IndirectCond            0      0.00%     98.95% # Number of branches that got corrected but not yet commited. Branches get corrected by decode or after execute. Also a branch misprediction can be detected out-of-order. Therefore, a corrected branch might not end up beeing committed in case an even earlier branch was mispredicted (Count)
system.cpu.branchPred.corrected_0::IndirectUncond         1939      1.05%    100.00% # Number of branches that got corrected but not yet commited. Branches get corrected by decode or after execute. Also a branch misprediction can be detected out-of-order. Therefore, a corrected branch might not end up beeing committed in case an even earlier branch was mispredicted (Count)
system.cpu.branchPred.corrected_0::total       184442                       # Number of branches that got corrected but not yet commited. Branches get corrected by decode or after execute. Also a branch misprediction can be detected out-of-order. Therefore, a corrected branch might not end up beeing committed in case an even earlier branch was mispredicted (Count)
system.cpu.branchPred.earlyResteers_0::NoBranch            0                       # Number of branches that got redirected after decode. (Count)
system.cpu.branchPred.earlyResteers_0::Return            0                       # Number of branches that got redirected after decode. (Count)
system.cpu.branchPred.earlyResteers_0::CallDirect            0                       # Number of branches that got redirected after decode. (Count)
system.cpu.branchPred.earlyResteers_0::CallIndirect            0                       # Number of branches that got redirected after decode. (Count)
system.cpu.branchPred.earlyResteers_0::DirectCond            0                       # Number of branches that got redirected after decode. (Count)
system.cpu.branchPred.earlyResteers_0::DirectUncond            0                       # Number of branches that got redirected after decode. (Count)
system.cpu.branchPred.earlyResteers_0::IndirectCond            0                       # Number of branches that got redirected after decode. (Count)
system.cpu.branchPred.earlyResteers_0::IndirectUncond            0                       # Number of branches that got redirected after decode. (Count)
system.cpu.branchPred.earlyResteers_0::total            0                       # Number of branches that got redirected after decode. (Count)
system.cpu.branchPred.committed_0::NoBranch          273      0.00%      0.00% # Number of branches finally committed  (Count)
system.cpu.branchPred.committed_0::Return      2029586     14.19%     14.19% # Number of branches finally committed  (Count)
system.cpu.branchPred.committed_0::CallDirect      2028987     14.18%     28.37% # Number of branches finally committed  (Count)
system.cpu.branchPred.committed_0::CallIndirect          604      0.00%     28.38% # Number of branches finally committed  (Count)
system.cpu.branchPred.committed_0::DirectCond      9930665     69.42%     97.80% # Number of branches finally committed  (Count)
system.cpu.branchPred.committed_0::DirectUncond       245617      1.72%     99.52% # Number of branches finally committed  (Count)
system.cpu.branchPred.committed_0::IndirectCond            0      0.00%     99.52% # Number of branches finally committed  (Count)
system.cpu.branchPred.committed_0::IndirectUncond        69273      0.48%    100.00% # Number of branches finally committed  (Count)
system.cpu.branchPred.committed_0::total     14305005                       # Number of branches finally committed  (Count)
system.cpu.branchPred.mispredicted_0::NoBranch          273      0.17%      0.17% # Number of committed branches that were mispredicted. (Count)
system.cpu.branchPred.mispredicted_0::Return         1774      1.08%      1.25% # Number of committed branches that were mispredicted. (Count)
system.cpu.branchPred.mispredicted_0::CallDirect         7468      4.55%      5.80% # Number of committed branches that were mispredicted. (Count)
system.cpu.branchPred.mispredicted_0::CallIndirect          205      0.13%      5.93% # Number of committed branches that were mispredicted. (Count)
system.cpu.branchPred.mispredicted_0::DirectCond       150621     91.85%     97.78% # Number of committed branches that were mispredicted. (Count)
system.cpu.branchPred.mispredicted_0::DirectUncond         1772      1.08%     98.86% # Number of committed branches that were mispredicted. (Count)
system.cpu.branchPred.mispredicted_0::IndirectCond            0      0.00%     98.86% # Number of committed branches that were mispredicted. (Count)
system.cpu.branchPred.mispredicted_0::IndirectUncond         1874      1.14%    100.00% # Number of committed branches that were mispredicted. (Count)
system.cpu.branchPred.mispredicted_0::total       163987                       # Number of committed branches that were mispredicted. (Count)
system.cpu.branchPred.targetProvider_0::NoTarget      4966960     27.78%     27.78% # The component providing the target for taken branches (Count)
system.cpu.branchPred.targetProvider_0::BTB     10167300     56.86%     84.64% # The component providing the target for taken branches (Count)
system.cpu.branchPred.targetProvider_0::RAS      2651089     14.83%     99.46% # The component providing the target for taken branches (Count)
system.cpu.branchPred.targetProvider_0::Indirect        95997      0.54%    100.00% # The component providing the target for taken branches (Count)
system.cpu.branchPred.targetProvider_0::total     17881346                       # The component providing the target for taken branches (Count)
system.cpu.branchPred.targetWrong_0::NoBranch        85667     47.01%     47.01% # Number of branches where the target was incorrect or not available at prediction time. (Count)
system.cpu.branchPred.targetWrong_0::Return        93933     51.55%     98.56% # Number of branches where the target was incorrect or not available at prediction time. (Count)
system.cpu.branchPred.targetWrong_0::CallDirect         1791      0.98%     99.54% # Number of branches where the target was incorrect or not available at prediction time. (Count)
system.cpu.branchPred.targetWrong_0::CallIndirect          835      0.46%    100.00% # Number of branches where the target was incorrect or not available at prediction time. (Count)
system.cpu.branchPred.targetWrong_0::DirectCond            0      0.00%    100.00% # Number of branches where the target was incorrect or not available at prediction time. (Count)
system.cpu.branchPred.targetWrong_0::DirectUncond            0      0.00%    100.00% # Number of branches where the target was incorrect or not available at prediction time. (Count)
system.cpu.branchPred.targetWrong_0::IndirectCond            0      0.00%    100.00% # Number of branches where the target was incorrect or not available at prediction time. (Count)
system.cpu.branchPred.targetWrong_0::IndirectUncond            0      0.00%    100.00% # Number of branches where the target was incorrect or not available at prediction time. (Count)
system.cpu.branchPred.targetWrong_0::total       182226                       # Number of branches where the target was incorrect or not available at prediction time. (Count)
system.cpu.branchPred.condPredicted          11917018                       # Number of conditional branches predicted (Count)
system.cpu.branchPred.condPredictedTaken      6991241                       # Number of conditional branches predicted as taken (Count)
system.cpu.branchPred.condIncorrect            184442                       # Number of conditional branches incorrect (Count)
system.cpu.branchPred.predTakenBTBMiss          12205                       # Number of branches predicted taken but missed in BTB (Count)
system.cpu.branchPred.NotTakenMispredicted        93313                       # Number branches predicted 'not taken' but turned out to be taken (Count)
system.cpu.branchPred.TakenMispredicted         91129                       # Number branches predicted taken but are actually not taken (Count)
system.cpu.branchPred.BTBLookups             17881346                       # Number of BTB lookups (Count)
system.cpu.branchPred.BTBUpdates                88879                       # Number of BTB updates (Count)
system.cpu.branchPred.BTBHits                11957473                       # Number of BTB hits (Count)
system.cpu.branchPred.BTBHitRatio            0.668712                       # BTB Hit Ratio (Ratio)
system.cpu.branchPred.BTBMispredicted           13219                       # Number BTB mispredictions. No target found or target wrong (Count)
system.cpu.branchPred.indirectLookups          109165                       # Number of indirect predictor lookups. (Count)
system.cpu.branchPred.indirectHits              95997                       # Number of indirect target hits. (Count)
system.cpu.branchPred.indirectMisses            13168                       # Number of indirect misses. (Count)
system.cpu.branchPred.indirectMispredicted            0                       # Number of mispredicted indirect branches. (Count)
system.cpu.branchPred.btb.lookups::NoBranch         2147      0.01%      0.01% # Number of BTB lookups (Count)
system.cpu.branchPred.btb.lookups::Return      2651091     14.83%     14.84% # Number of BTB lookups (Count)
system.cpu.branchPred.btb.lookups::CallDirect      2893942     16.18%     31.02% # Number of BTB lookups (Count)
system.cpu.branchPred.btb.lookups::CallIndirect         1341      0.01%     31.03% # Number of BTB lookups (Count)
system.cpu.branchPred.btb.lookups::DirectCond     11914871     66.63%     97.66% # Number of BTB lookups (Count)
system.cpu.branchPred.btb.lookups::DirectUncond       310130      1.73%     99.40% # Number of BTB lookups (Count)
system.cpu.branchPred.btb.lookups::IndirectCond            0      0.00%     99.40% # Number of BTB lookups (Count)
system.cpu.branchPred.btb.lookups::IndirectUncond       107824      0.60%    100.00% # Number of BTB lookups (Count)
system.cpu.branchPred.btb.lookups::total     17881346                       # Number of BTB lookups (Count)
system.cpu.branchPred.btb.misses::NoBranch          392      0.01%      0.01% # Number of BTB misses (Count)
system.cpu.branchPred.btb.misses::Return      2651091     44.75%     44.76% # Number of BTB misses (Count)
system.cpu.branchPred.btb.misses::CallDirect        10497      0.18%     44.94% # Number of BTB misses (Count)
system.cpu.branchPred.btb.misses::CallIndirect         1340      0.02%     44.96% # Number of BTB misses (Count)
system.cpu.branchPred.btb.misses::DirectCond      3147054     53.12%     98.08% # Number of BTB misses (Count)
system.cpu.branchPred.btb.misses::DirectUncond         5675      0.10%     98.18% # Number of BTB misses (Count)
system.cpu.branchPred.btb.misses::IndirectCond            0      0.00%     98.18% # Number of BTB misses (Count)
system.cpu.branchPred.btb.misses::IndirectUncond       107824      1.82%    100.00% # Number of BTB misses (Count)
system.cpu.branchPred.btb.misses::total       5923873                       # Number of BTB misses (Count)
system.cpu.branchPred.btb.updates::NoBranch            0      0.00%      0.00% # Number of BTB updates (Count)
system.cpu.branchPred.btb.updates::Return            0      0.00%      0.00% # Number of BTB updates (Count)
system.cpu.branchPred.btb.updates::CallDirect         8591      9.67%      9.67% # Number of BTB updates (Count)
system.cpu.branchPred.btb.updates::CallIndirect            0      0.00%      9.67% # Number of BTB updates (Count)
system.cpu.branchPred.btb.updates::DirectCond        77685     87.41%     97.07% # Number of BTB updates (Count)
system.cpu.branchPred.btb.updates::DirectUncond         2603      2.93%    100.00% # Number of BTB updates (Count)
system.cpu.branchPred.btb.updates::IndirectCond            0      0.00%    100.00% # Number of BTB updates (Count)
system.cpu.branchPred.btb.updates::IndirectUncond            0      0.00%    100.00% # Number of BTB updates (Count)
system.cpu.branchPred.btb.updates::total        88879                       # Number of BTB updates (Count)
system.cpu.branchPred.btb.mispredict::NoBranch            0      0.00%      0.00% # Number of BTB mispredictions. No target found or target wrong. (Count)
system.cpu.branchPred.btb.mispredict::Return            0      0.00%      0.00% # Number of BTB mispredictions. No target found or target wrong. (Count)
system.cpu.branchPred.btb.mispredict::CallDirect         8591      9.67%      9.67% # Number of BTB mispredictions. No target found or target wrong. (Count)
system.cpu.branchPred.btb.mispredict::CallIndirect            0      0.00%      9.67% # Number of BTB mispredictions. No target found or target wrong. (Count)
system.cpu.branchPred.btb.mispredict::DirectCond        77685     87.41%     97.07% # Number of BTB mispredictions. No target found or target wrong. (Count)
system.cpu.branchPred.btb.mispredict::DirectUncond         2603      2.93%    100.00% # Number of BTB mispredictions. No target found or target wrong. (Count)
system.cpu.branchPred.btb.mispredict::IndirectCond            0      0.00%    100.00% # Number of BTB mispredictions. No target found or target wrong. (Count)
system.cpu.branchPred.btb.mispredict::IndirectUncond            0      0.00%    100.00% # Number of BTB mispredictions. No target found or target wrong. (Count)
system.cpu.branchPred.btb.mispredict::total        88879                       # Number of BTB mispredictions. No target found or target wrong. (Count)
system.cpu.branchPred.btb.power_state.pwrStateResidencyTicks::UNDEFINED 1035194626154                       # Cumulative time (in ticks) in various power states (Tick)
system.cpu.branchPred.indirectBranchPred.lookups       109165                       # Number of lookups (Count)
system.cpu.branchPred.indirectBranchPred.hits        95997                       # Number of hits of a tag (Count)
system.cpu.branchPred.indirectBranchPred.misses        13168                       # Number of misses (Count)
system.cpu.branchPred.indirectBranchPred.targetRecords         2176                       # Number of targets that where recorded/installed in the cache (Count)
system.cpu.branchPred.indirectBranchPred.indirectRecords       111341                       # Number of indirect branches/calls recorded in the indirect hist (Count)
system.cpu.branchPred.indirectBranchPred.speculativeOverflows            1                       # Number of times more than the allowed capacity for speculative branches/calls where in flight and destroy the path history (Count)
system.cpu.branchPred.ras.pushes              3516787                       # Number of times a PC was pushed onto the RAS (Count)
system.cpu.branchPred.ras.pops                3516782                       # Number of times a PC was poped from the RAS (Count)
system.cpu.branchPred.ras.squashes            1487195                       # Number of times the stack operation was squashed due to wrong speculation. (Count)
system.cpu.branchPred.ras.used                2029586                       # Number of times the RAS is the provider (Count)
system.cpu.branchPred.ras.correct             2027812                       # Number of times the RAS is the provider and the prediction is correct (Count)
system.cpu.branchPred.ras.incorrect              1774                       # Number of times the RAS is the provider and the prediction is wrong (Count)
system.cpu.commit.commitSquashedInsts        30920938                       # The number of squashed insts skipped by commit (Count)
system.cpu.commit.commitNonSpecStalls         1416526                       # The number of times commit has been forced to stall to communicate backwards (Count)
system.cpu.commit.branchMispredicts            171569                       # The number of times a branch was mispredicted (Count)
system.cpu.commit.numCommittedDist::samples     73232373                       # Number of insts commited each cycle (Count)
system.cpu.commit.numCommittedDist::mean     2.170519                       # Number of insts commited each cycle (Count)
system.cpu.commit.numCommittedDist::stdev     2.937123                       # Number of insts commited each cycle (Count)
system.cpu.commit.numCommittedDist::underflows            0      0.00%      0.00% # Number of insts commited each cycle (Count)
system.cpu.commit.numCommittedDist::0        35541500     48.53%     48.53% # Number of insts commited each cycle (Count)
system.cpu.commit.numCommittedDist::1         9657309     13.19%     61.72% # Number of insts commited each cycle (Count)
system.cpu.commit.numCommittedDist::2         3968483      5.42%     67.14% # Number of insts commited each cycle (Count)
system.cpu.commit.numCommittedDist::3         6839473      9.34%     76.48% # Number of insts commited each cycle (Count)
system.cpu.commit.numCommittedDist::4         2783924      3.80%     80.28% # Number of insts commited each cycle (Count)
system.cpu.commit.numCommittedDist::5         1046230      1.43%     81.71% # Number of insts commited each cycle (Count)
system.cpu.commit.numCommittedDist::6         1015829      1.39%     83.10% # Number of insts commited each cycle (Count)
system.cpu.commit.numCommittedDist::7          659246      0.90%     84.00% # Number of insts commited each cycle (Count)
system.cpu.commit.numCommittedDist::8        11720379     16.00%    100.00% # Number of insts commited each cycle (Count)
system.cpu.commit.numCommittedDist::overflows            0      0.00%    100.00% # Number of insts commited each cycle (Count)
system.cpu.commit.numCommittedDist::min_value            0                       # Number of insts commited each cycle (Count)
system.cpu.commit.numCommittedDist::max_value            8                       # Number of insts commited each cycle (Count)
system.cpu.commit.numCommittedDist::total     73232373                       # Number of insts commited each cycle (Count)
system.cpu.commit.amos                              0                       # Number of atomic instructions committed (Count)
system.cpu.commit.membars                      943876                       # Number of memory barriers committed (Count)
system.cpu.commit.functionCalls               2029591                       # Number of function calls committed. (Count)
system.cpu.commit.committedInstType_0::No_OpClass      1421908      0.89%      0.89% # Class of committed instruction (Count)
system.cpu.commit.committedInstType_0::IntAlu    108147012     68.04%     68.93% # Class of committed instruction (Count)
system.cpu.commit.committedInstType_0::IntMult       638698      0.40%     69.33% # Class of committed instruction (Count)
system.cpu.commit.committedInstType_0::IntDiv        90533      0.06%     69.39% # Class of committed instruction (Count)
system.cpu.commit.committedInstType_0::FloatAdd        48793      0.03%     69.42% # Class of committed instruction (Count)
system.cpu.commit.committedInstType_0::FloatCmp            0      0.00%     69.42% # Class of committed instruction (Count)
system.cpu.commit.committedInstType_0::FloatCvt         1232      0.00%     69.42% # Class of committed instruction (Count)
system.cpu.commit.committedInstType_0::FloatMult            0      0.00%     69.42% # Class of committed instruction (Count)
system.cpu.commit.committedInstType_0::FloatMultAcc            0      0.00%     69.42% # Class of committed instruction (Count)
system.cpu.commit.committedInstType_0::FloatDiv            0      0.00%     69.42% # Class of committed instruction (Count)
system.cpu.commit.committedInstType_0::FloatMisc            0      0.00%     69.42% # Class of committed instruction (Count)
system.cpu.commit.committedInstType_0::FloatSqrt            0      0.00%     69.42% # Class of committed instruction (Count)
system.cpu.commit.committedInstType_0::SimdAdd         6642      0.00%     69.43% # Class of committed instruction (Count)
system.cpu.commit.committedInstType_0::SimdAddAcc            0      0.00%     69.43% # Class of committed instruction (Count)
system.cpu.commit.committedInstType_0::SimdAlu        61128      0.04%     69.46% # Class of committed instruction (Count)
system.cpu.commit.committedInstType_0::SimdCmp            6      0.00%     69.46% # Class of committed instruction (Count)
system.cpu.commit.committedInstType_0::SimdCvt        14500      0.01%     69.47% # Class of committed instruction (Count)
system.cpu.commit.committedInstType_0::SimdMisc       252836      0.16%     69.63% # Class of committed instruction (Count)
system.cpu.commit.committedInstType_0::SimdMult            0      0.00%     69.63% # Class of committed instruction (Count)
system.cpu.commit.committedInstType_0::SimdMultAcc            0      0.00%     69.63% # Class of committed instruction (Count)
system.cpu.commit.committedInstType_0::SimdMatMultAcc            0      0.00%     69.63% # Class of committed instruction (Count)
system.cpu.commit.committedInstType_0::SimdShift         1809      0.00%     69.63% # Class of committed instruction (Count)
system.cpu.commit.committedInstType_0::SimdShiftAcc            0      0.00%     69.63% # Class of committed instruction (Count)
system.cpu.commit.committedInstType_0::SimdDiv            0      0.00%     69.63% # Class of committed instruction (Count)
system.cpu.commit.committedInstType_0::SimdSqrt            0      0.00%     69.63% # Class of committed instruction (Count)
system.cpu.commit.committedInstType_0::SimdFloatAdd         3471      0.00%     69.64% # Class of committed instruction (Count)
system.cpu.commit.committedInstType_0::SimdFloatAlu            0      0.00%     69.64% # Class of committed instruction (Count)
system.cpu.commit.committedInstType_0::SimdFloatCmp            0      0.00%     69.64% # Class of committed instruction (Count)
system.cpu.commit.committedInstType_0::SimdFloatCvt        25680      0.02%     69.65% # Class of committed instruction (Count)
system.cpu.commit.committedInstType_0::SimdFloatDiv          348      0.00%     69.65% # Class of committed instruction (Count)
system.cpu.commit.committedInstType_0::SimdFloatMisc            0      0.00%     69.65% # Class of committed instruction (Count)
system.cpu.commit.committedInstType_0::SimdFloatMult            0      0.00%     69.65% # Class of committed instruction (Count)
system.cpu.commit.committedInstType_0::SimdFloatMultAcc            0      0.00%     69.65% # Class of committed instruction (Count)
system.cpu.commit.committedInstType_0::SimdFloatMatMultAcc            0      0.00%     69.65% # Class of committed instruction (Count)
system.cpu.commit.committedInstType_0::SimdFloatSqrt         3123      0.00%     69.65% # Class of committed instruction (Count)
system.cpu.commit.committedInstType_0::SimdReduceAdd            0      0.00%     69.65% # Class of committed instruction (Count)
system.cpu.commit.committedInstType_0::SimdReduceAlu            0      0.00%     69.65% # Class of committed instruction (Count)
system.cpu.commit.committedInstType_0::SimdReduceCmp            0      0.00%     69.65% # Class of committed instruction (Count)
system.cpu.commit.committedInstType_0::SimdFloatReduceAdd            0      0.00%     69.65% # Class of committed instruction (Count)
system.cpu.commit.committedInstType_0::SimdFloatReduceCmp            0      0.00%     69.65% # Class of committed instruction (Count)
system.cpu.commit.committedInstType_0::SimdAes            0      0.00%     69.65% # Class of committed instruction (Count)
system.cpu.commit.committedInstType_0::SimdAesMix            0      0.00%     69.65% # Class of committed instruction (Count)
system.cpu.commit.committedInstType_0::SimdSha1Hash            0      0.00%     69.65% # Class of committed instruction (Count)
system.cpu.commit.committedInstType_0::SimdSha1Hash2            0      0.00%     69.65% # Class of committed instruction (Count)
system.cpu.commit.committedInstType_0::SimdSha256Hash            0      0.00%     69.65% # Class of committed instruction (Count)
system.cpu.commit.committedInstType_0::SimdSha256Hash2            0      0.00%     69.65% # Class of committed instruction (Count)
system.cpu.commit.committedInstType_0::SimdShaSigma2            0      0.00%     69.65% # Class of committed instruction (Count)
system.cpu.commit.committedInstType_0::SimdShaSigma3            0      0.00%     69.65% # Class of committed instruction (Count)
system.cpu.commit.committedInstType_0::SimdPredAlu            0      0.00%     69.65% # Class of committed instruction (Count)
system.cpu.commit.committedInstType_0::Matrix            0      0.00%     69.65% # Class of committed instruction (Count)
system.cpu.commit.committedInstType_0::MatrixMov            0      0.00%     69.65% # Class of committed instruction (Count)
system.cpu.commit.committedInstType_0::MatrixOP            0      0.00%     69.65% # Class of committed instruction (Count)
system.cpu.commit.committedInstType_0::MemRead     32482304     20.44%     90.09% # Class of committed instruction (Count)
system.cpu.commit.committedInstType_0::MemWrite     15681997      9.87%     99.96% # Class of committed instruction (Count)
system.cpu.commit.committedInstType_0::FloatMemRead        43299      0.03%     99.98% # Class of committed instruction (Count)
system.cpu.commit.committedInstType_0::FloatMemWrite        26949      0.02%    100.00% # Class of committed instruction (Count)
system.cpu.commit.committedInstType_0::IprAccess            0      0.00%    100.00% # Class of committed instruction (Count)
system.cpu.commit.committedInstType_0::InstPrefetch            0      0.00%    100.00% # Class of committed instruction (Count)
system.cpu.commit.committedInstType_0::SimdUnitStrideLoad            0      0.00%    100.00% # Class of committed instruction (Count)
system.cpu.commit.committedInstType_0::SimdUnitStrideStore            0      0.00%    100.00% # Class of committed instruction (Count)
system.cpu.commit.committedInstType_0::SimdUnitStrideMaskLoad            0      0.00%    100.00% # Class of committed instruction (Count)
system.cpu.commit.committedInstType_0::SimdUnitStrideMaskStore            0      0.00%    100.00% # Class of committed instruction (Count)
system.cpu.commit.committedInstType_0::SimdStridedLoad            0      0.00%    100.00% # Class of committed instruction (Count)
system.cpu.commit.committedInstType_0::SimdStridedStore            0      0.00%    100.00% # Class of committed instruction (Count)
system.cpu.commit.committedInstType_0::SimdIndexedLoad            0      0.00%    100.00% # Class of committed instruction (Count)
system.cpu.commit.committedInstType_0::SimdIndexedStore            0      0.00%    100.00% # Class of committed instruction (Count)
system.cpu.commit.committedInstType_0::SimdWholeRegisterLoad            0      0.00%    100.00% # Class of committed instruction (Count)
system.cpu.commit.committedInstType_0::SimdWholeRegisterStore            0      0.00%    100.00% # Class of committed instruction (Count)
system.cpu.commit.committedInstType_0::SimdUnitStrideFaultOnlyFirstLoad            0      0.00%    100.00% # Class of committed instruction (Count)
system.cpu.commit.committedInstType_0::SimdUnitStrideSegmentedLoad            0      0.00%    100.00% # Class of committed instruction (Count)
system.cpu.commit.committedInstType_0::SimdUnitStrideSegmentedStore            0      0.00%    100.00% # Class of committed instruction (Count)
system.cpu.commit.committedInstType_0::SimdExt            0      0.00%    100.00% # Class of committed instruction (Count)
system.cpu.commit.committedInstType_0::SimdFloatExt            0      0.00%    100.00% # Class of committed instruction (Count)
system.cpu.commit.committedInstType_0::SimdConfig            0      0.00%    100.00% # Class of committed instruction (Count)
system.cpu.commit.committedInstType_0::total    158952268                       # Class of committed instruction (Count)
system.cpu.commit.commitEligibleSamples      11720379                       # number cycles where commit BW limit reached (Cycle)
system.cpu.commitStats0.numInsts             93077001                       # Number of instructions committed (thread level) (Count)
system.cpu.commitStats0.numOps              158952268                       # Number of ops (including micro ops) committed (thread level) (Count)
system.cpu.commitStats0.numInstsNotNOP       93077001                       # Number of instructions committed excluding NOPs or prefetches (Count)
system.cpu.commitStats0.numOpsNotNOP        158952268                       # Number of Ops (including micro ops) Simulated (Count)
system.cpu.commitStats0.cpi                  0.834165                       # CPI: cycles per instruction (thread level) ((Cycle/Count))
system.cpu.commitStats0.ipc                  1.198804                       # IPC: instructions per cycle (thread level) ((Count/Cycle))
system.cpu.commitStats0.numMemRefs           48234549                       # Number of memory references committed (Count)
system.cpu.commitStats0.numFpInsts             541169                       # Number of float instructions (Count)
system.cpu.commitStats0.numIntInsts         156174712                       # Number of integer instructions (Count)
system.cpu.commitStats0.numLoadInsts         32525603                       # Number of load instructions (Count)
system.cpu.commitStats0.numStoreInsts        15708946                       # Number of store instructions (Count)
system.cpu.commitStats0.numVecInsts                 0                       # Number of vector instructions (Count)
system.cpu.commitStats0.committedInstType::No_OpClass      1421908      0.89%      0.89% # Class of committed instruction. (Count)
system.cpu.commitStats0.committedInstType::IntAlu    108147012     68.04%     68.93% # Class of committed instruction. (Count)
system.cpu.commitStats0.committedInstType::IntMult       638698      0.40%     69.33% # Class of committed instruction. (Count)
system.cpu.commitStats0.committedInstType::IntDiv        90533      0.06%     69.39% # Class of committed instruction. (Count)
system.cpu.commitStats0.committedInstType::FloatAdd        48793      0.03%     69.42% # Class of committed instruction. (Count)
system.cpu.commitStats0.committedInstType::FloatCmp            0      0.00%     69.42% # Class of committed instruction. (Count)
system.cpu.commitStats0.committedInstType::FloatCvt         1232      0.00%     69.42% # Class of committed instruction. (Count)
system.cpu.commitStats0.committedInstType::FloatMult            0      0.00%     69.42% # Class of committed instruction. (Count)
system.cpu.commitStats0.committedInstType::FloatMultAcc            0      0.00%     69.42% # Class of committed instruction. (Count)
system.cpu.commitStats0.committedInstType::FloatDiv            0      0.00%     69.42% # Class of committed instruction. (Count)
system.cpu.commitStats0.committedInstType::FloatMisc            0      0.00%     69.42% # Class of committed instruction. (Count)
system.cpu.commitStats0.committedInstType::FloatSqrt            0      0.00%     69.42% # Class of committed instruction. (Count)
system.cpu.commitStats0.committedInstType::SimdAdd         6642      0.00%     69.43% # Class of committed instruction. (Count)
system.cpu.commitStats0.committedInstType::SimdAddAcc            0      0.00%     69.43% # Class of committed instruction. (Count)
system.cpu.commitStats0.committedInstType::SimdAlu        61128      0.04%     69.46% # Class of committed instruction. (Count)
system.cpu.commitStats0.committedInstType::SimdCmp            6      0.00%     69.46% # Class of committed instruction. (Count)
system.cpu.commitStats0.committedInstType::SimdCvt        14500      0.01%     69.47% # Class of committed instruction. (Count)
system.cpu.commitStats0.committedInstType::SimdMisc       252836      0.16%     69.63% # Class of committed instruction. (Count)
system.cpu.commitStats0.committedInstType::SimdMult            0      0.00%     69.63% # Class of committed instruction. (Count)
system.cpu.commitStats0.committedInstType::SimdMultAcc            0      0.00%     69.63% # Class of committed instruction. (Count)
system.cpu.commitStats0.committedInstType::SimdMatMultAcc            0      0.00%     69.63% # Class of committed instruction. (Count)
system.cpu.commitStats0.committedInstType::SimdShift         1809      0.00%     69.63% # Class of committed instruction. (Count)
system.cpu.commitStats0.committedInstType::SimdShiftAcc            0      0.00%     69.63% # Class of committed instruction. (Count)
system.cpu.commitStats0.committedInstType::SimdDiv            0      0.00%     69.63% # Class of committed instruction. (Count)
system.cpu.commitStats0.committedInstType::SimdSqrt            0      0.00%     69.63% # Class of committed instruction. (Count)
system.cpu.commitStats0.committedInstType::SimdFloatAdd         3471      0.00%     69.64% # Class of committed instruction. (Count)
system.cpu.commitStats0.committedInstType::SimdFloatAlu            0      0.00%     69.64% # Class of committed instruction. (Count)
system.cpu.commitStats0.committedInstType::SimdFloatCmp            0      0.00%     69.64% # Class of committed instruction. (Count)
system.cpu.commitStats0.committedInstType::SimdFloatCvt        25680      0.02%     69.65% # Class of committed instruction. (Count)
system.cpu.commitStats0.committedInstType::SimdFloatDiv          348      0.00%     69.65% # Class of committed instruction. (Count)
system.cpu.commitStats0.committedInstType::SimdFloatMisc            0      0.00%     69.65% # Class of committed instruction. (Count)
system.cpu.commitStats0.committedInstType::SimdFloatMult            0      0.00%     69.65% # Class of committed instruction. (Count)
system.cpu.commitStats0.committedInstType::SimdFloatMultAcc            0      0.00%     69.65% # Class of committed instruction. (Count)
system.cpu.commitStats0.committedInstType::SimdFloatMatMultAcc            0      0.00%     69.65% # Class of committed instruction. (Count)
system.cpu.commitStats0.committedInstType::SimdFloatSqrt         3123      0.00%     69.65% # Class of committed instruction. (Count)
system.cpu.commitStats0.committedInstType::SimdReduceAdd            0      0.00%     69.65% # Class of committed instruction. (Count)
system.cpu.commitStats0.committedInstType::SimdReduceAlu            0      0.00%     69.65% # Class of committed instruction. (Count)
system.cpu.commitStats0.committedInstType::SimdReduceCmp            0      0.00%     69.65% # Class of committed instruction. (Count)
system.cpu.commitStats0.committedInstType::SimdFloatReduceAdd            0      0.00%     69.65% # Class of committed instruction. (Count)
system.cpu.commitStats0.committedInstType::SimdFloatReduceCmp            0      0.00%     69.65% # Class of committed instruction. (Count)
system.cpu.commitStats0.committedInstType::SimdAes            0      0.00%     69.65% # Class of committed instruction. (Count)
system.cpu.commitStats0.committedInstType::SimdAesMix            0      0.00%     69.65% # Class of committed instruction. (Count)
system.cpu.commitStats0.committedInstType::SimdSha1Hash            0      0.00%     69.65% # Class of committed instruction. (Count)
system.cpu.commitStats0.committedInstType::SimdSha1Hash2            0      0.00%     69.65% # Class of committed instruction. (Count)
system.cpu.commitStats0.committedInstType::SimdSha256Hash            0      0.00%     69.65% # Class of committed instruction. (Count)
system.cpu.commitStats0.committedInstType::SimdSha256Hash2            0      0.00%     69.65% # Class of committed instruction. (Count)
system.cpu.commitStats0.committedInstType::SimdShaSigma2            0      0.00%     69.65% # Class of committed instruction. (Count)
system.cpu.commitStats0.committedInstType::SimdShaSigma3            0      0.00%     69.65% # Class of committed instruction. (Count)
system.cpu.commitStats0.committedInstType::SimdPredAlu            0      0.00%     69.65% # Class of committed instruction. (Count)
system.cpu.commitStats0.committedInstType::Matrix            0      0.00%     69.65% # Class of committed instruction. (Count)
system.cpu.commitStats0.committedInstType::MatrixMov            0      0.00%     69.65% # Class of committed instruction. (Count)
system.cpu.commitStats0.committedInstType::MatrixOP            0      0.00%     69.65% # Class of committed instruction. (Count)
system.cpu.commitStats0.committedInstType::MemRead     32482304     20.44%     90.09% # Class of committed instruction. (Count)
system.cpu.commitStats0.committedInstType::MemWrite     15681997      9.87%     99.96% # Class of committed instruction. (Count)
system.cpu.commitStats0.committedInstType::FloatMemRead        43299      0.03%     99.98% # Class of committed instruction. (Count)
system.cpu.commitStats0.committedInstType::FloatMemWrite        26949      0.02%    100.00% # Class of committed instruction. (Count)
system.cpu.commitStats0.committedInstType::IprAccess            0      0.00%    100.00% # Class of committed instruction. (Count)
system.cpu.commitStats0.committedInstType::InstPrefetch            0      0.00%    100.00% # Class of committed instruction. (Count)
system.cpu.commitStats0.committedInstType::SimdUnitStrideLoad            0      0.00%    100.00% # Class of committed instruction. (Count)
system.cpu.commitStats0.committedInstType::SimdUnitStrideStore            0      0.00%    100.00% # Class of committed instruction. (Count)
system.cpu.commitStats0.committedInstType::SimdUnitStrideMaskLoad            0      0.00%    100.00% # Class of committed instruction. (Count)
system.cpu.commitStats0.committedInstType::SimdUnitStrideMaskStore            0      0.00%    100.00% # Class of committed instruction. (Count)
system.cpu.commitStats0.committedInstType::SimdStridedLoad            0      0.00%    100.00% # Class of committed instruction. (Count)
system.cpu.commitStats0.committedInstType::SimdStridedStore            0      0.00%    100.00% # Class of committed instruction. (Count)
system.cpu.commitStats0.committedInstType::SimdIndexedLoad            0      0.00%    100.00% # Class of committed instruction. (Count)
system.cpu.commitStats0.committedInstType::SimdIndexedStore            0      0.00%    100.00% # Class of committed instruction. (Count)
system.cpu.commitStats0.committedInstType::SimdWholeRegisterLoad            0      0.00%    100.00% # Class of committed instruction. (Count)
system.cpu.commitStats0.committedInstType::SimdWholeRegisterStore            0      0.00%    100.00% # Class of committed instruction. (Count)
system.cpu.commitStats0.committedInstType::SimdUnitStrideFaultOnlyFirstLoad            0      0.00%    100.00% # Class of committed instruction. (Count)
system.cpu.commitStats0.committedInstType::SimdUnitStrideSegmentedLoad            0      0.00%    100.00% # Class of committed instruction. (Count)
system.cpu.commitStats0.committedInstType::SimdUnitStrideSegmentedStore            0      0.00%    100.00% # Class of committed instruction. (Count)
system.cpu.commitStats0.committedInstType::SimdExt            0      0.00%    100.00% # Class of committed instruction. (Count)
system.cpu.commitStats0.committedInstType::SimdFloatExt            0      0.00%    100.00% # Class of committed instruction. (Count)
system.cpu.commitStats0.committedInstType::SimdConfig            0      0.00%    100.00% # Class of committed instruction. (Count)
system.cpu.commitStats0.committedInstType::total    158952268                       # Class of committed instruction. (Count)
system.cpu.commitStats0.committedControl::IsControl     14305005                       # Class of control type instructions committed (Count)
system.cpu.commitStats0.committedControl::IsDirectControl     12205269                       # Class of control type instructions committed (Count)
system.cpu.commitStats0.committedControl::IsIndirectControl      2099463                       # Class of control type instructions committed (Count)
system.cpu.commitStats0.committedControl::IsCondControl      9930665                       # Class of control type instructions committed (Count)
system.cpu.commitStats0.committedControl::IsUncondControl      4374067                       # Class of control type instructions committed (Count)
system.cpu.commitStats0.committedControl::IsCall      2029591                       # Class of control type instructions committed (Count)
system.cpu.commitStats0.committedControl::IsReturn      2029586                       # Class of control type instructions committed (Count)
system.cpu.decode.idleCycles                 22916811                       # Number of cycles decode is idle (Cycle)
system.cpu.decode.blockedCycles              26487339                       # Number of cycles decode is blocked (Cycle)
system.cpu.decode.runCycles                  20486352                       # Number of cycles decode is running (Cycle)
system.cpu.decode.unblockCycles               7114436                       # Number of cycles decode is unblocking (Cycle)
system.cpu.decode.squashCycles                 533845                       # Number of cycles decode is squashing (Cycle)
system.cpu.decode.branchResolved              9845946                       # Number of times decode resolved a branch (Count)
system.cpu.decode.branchMispred                 13117                       # Number of times decode detected a branch misprediction (Count)
system.cpu.decode.decodedInsts              195414246                       # Number of instructions handled by decode (Count)
system.cpu.decode.squashedInsts                 61296                       # Number of squashed instructions handled by decode (Count)
system.cpu.executeStats0.numInsts           177137528                       # Number of executed instructions (Count)
system.cpu.executeStats0.numNop                     0                       # Number of nop insts executed (Count)
system.cpu.executeStats0.numBranches         15697669                       # Number of branches executed (Count)
system.cpu.executeStats0.numLoadInsts        36696138                       # Number of load instructions executed (Count)
system.cpu.executeStats0.numStoreInsts       17070641                       # Number of stores executed (Count)
system.cpu.executeStats0.instRate            2.281479                       # Inst execution rate ((Count/Cycle))
system.cpu.executeStats0.numCCRegReads       62792926                       # Number of times the CC registers were read (Count)
system.cpu.executeStats0.numCCRegWrites      44620583                       # Number of times the CC registers were written (Count)
system.cpu.executeStats0.numFpRegReads        1224306                       # Number of times the floating registers were read (Count)
system.cpu.executeStats0.numFpRegWrites        647893                       # Number of times the floating registers were written (Count)
system.cpu.executeStats0.numIntRegReads     207764160                       # Number of times the integer registers were read (Count)
system.cpu.executeStats0.numIntRegWrites    130943380                       # Number of times the integer registers were written (Count)
system.cpu.executeStats0.numMemRefs          53766779                       # Number of memory refs (Count)
system.cpu.executeStats0.numMiscRegReads     84004545                       # Number of times the Misc registers were read (Count)
system.cpu.executeStats0.numMiscRegWrites          693                       # Number of times the Misc registers were written (Count)
system.cpu.executeStats0.numVecAluAccesses            0                       # Number of vector alu accesses (Count)
system.cpu.executeStats0.numDiscardedOps            0                       # Number of ops (including micro ops) which were discarded before commit (Count)
system.cpu.fetch.predictedBranches           12914386                       # Number of branches that fetch has predicted taken (Count)
system.cpu.fetch.cycles                      49787267                       # Number of cycles fetch has run and was not squashing or blocked (Cycle)
system.cpu.fetch.squashCycles                 1093822                       # Number of cycles fetch has spent squashing (Cycle)
system.cpu.fetch.miscStallCycles                  246                       # Number of cycles fetch has spent waiting on interrupts, or bad addresses, or out of MSHRs (Cycle)
system.cpu.fetch.pendingTrapStallCycles          2276                       # Number of stall cycles due to pending traps (Cycle)
system.cpu.fetch.cacheLines                  14585175                       # Number of cache lines fetched (Count)
[...]
system.mem_ctrl.dram.bwRead::total          380690287                       # Total read bandwidth from this memory ((Byte/Second))
system.mem_ctrl.dram.bwInstRead::cpu.inst    188429139                       # Instruction read bandwidth from this memory ((Byte/Second))
system.mem_ctrl.dram.bwInstRead::total      188429139                       # Instruction read bandwidth from this memory ((Byte/Second))
system.mem_ctrl.dram.bwWrite::writebacks     52260676                       # Write bandwidth from this memory ((Byte/Second))
system.mem_ctrl.dram.bwWrite::total          52260676                       # Write bandwidth from this memory ((Byte/Second))
system.mem_ctrl.dram.bwTotal::writebacks     52260676                       # Total bandwidth to/from this memory ((Byte/Second))
system.mem_ctrl.dram.bwTotal::cpu.inst      188429139                       # Total bandwidth to/from this memory ((Byte/Second))
system.mem_ctrl.dram.bwTotal::cpu.data      192261148                       # Total bandwidth to/from this memory ((Byte/Second))
system.mem_ctrl.dram.bwTotal::total         432950964                       # Total bandwidth to/from this memory ((Byte/Second))
system.mem_ctrl.dram.readBursts                  5211                       # Number of DRAM read bursts (Count)
system.mem_ctrl.dram.writeBursts                  516                       # Number of DRAM write bursts (Count)
system.mem_ctrl.dram.perBankRdBursts::0           470                       # Per bank write bursts (Count)
system.mem_ctrl.dram.perBankRdBursts::1           432                       # Per bank write bursts (Count)
system.mem_ctrl.dram.perBankRdBursts::2           147                       # Per bank write bursts (Count)
system.mem_ctrl.dram.perBankRdBursts::3           342                       # Per bank write bursts (Count)
system.mem_ctrl.dram.perBankRdBursts::4           524                       # Per bank write bursts (Count)
system.mem_ctrl.dram.perBankRdBursts::5           305                       # Per bank write bursts (Count)
system.mem_ctrl.dram.perBankRdBursts::6           372                       # Per bank write bursts (Count)
system.mem_ctrl.dram.perBankRdBursts::7           264                       # Per bank write bursts (Count)
system.mem_ctrl.dram.perBankRdBursts::8           719                       # Per bank write bursts (Count)
system.mem_ctrl.dram.perBankRdBursts::9           189                       # Per bank write bursts (Count)
system.mem_ctrl.dram.perBankRdBursts::10          250                       # Per bank write bursts (Count)
system.mem_ctrl.dram.perBankRdBursts::11          182                       # Per bank write bursts (Count)
system.mem_ctrl.dram.perBankRdBursts::12          154                       # Per bank write bursts (Count)
system.mem_ctrl.dram.perBankRdBursts::13          264                       # Per bank write bursts (Count)
system.mem_ctrl.dram.perBankRdBursts::14          201                       # Per bank write bursts (Count)
system.mem_ctrl.dram.perBankRdBursts::15          396                       # Per bank write bursts (Count)
system.mem_ctrl.dram.perBankWrBursts::0           244                       # Per bank write bursts (Count)
system.mem_ctrl.dram.perBankWrBursts::1            50                       # Per bank write bursts (Count)
system.mem_ctrl.dram.perBankWrBursts::2             0                       # Per bank write bursts (Count)
system.mem_ctrl.dram.perBankWrBursts::3            44                       # Per bank write bursts (Count)
system.mem_ctrl.dram.perBankWrBursts::4            45                       # Per bank write bursts (Count)
system.mem_ctrl.dram.perBankWrBursts::5            17                       # Per bank write bursts (Count)
system.mem_ctrl.dram.perBankWrBursts::6             8                       # Per bank write bursts (Count)
system.mem_ctrl.dram.perBankWrBursts::7             1                       # Per bank write bursts (Count)
system.mem_ctrl.dram.perBankWrBursts::8            32                       # Per bank write bursts (Count)
system.mem_ctrl.dram.perBankWrBursts::9             1                       # Per bank write bursts (Count)
system.mem_ctrl.dram.perBankWrBursts::10           14                       # Per bank write bursts (Count)
system.mem_ctrl.dram.perBankWrBursts::11            8                       # Per bank write bursts (Count)
system.mem_ctrl.dram.perBankWrBursts::12            7                       # Per bank write bursts (Count)
system.mem_ctrl.dram.perBankWrBursts::13           12                       # Per bank write bursts (Count)
system.mem_ctrl.dram.perBankWrBursts::14           11                       # Per bank write bursts (Count)
system.mem_ctrl.dram.perBankWrBursts::15           22                       # Per bank write bursts (Count)
system.mem_ctrl.dram.totQLat                 70307760                       # Total ticks spent queuing (Tick)
system.mem_ctrl.dram.totBusLat               26055000                       # Total ticks spent in databus transfers (Tick)
system.mem_ctrl.dram.totMemAccLat           168014010                       # Total ticks spent from burst creation until serviced by the DRAM (Tick)
system.mem_ctrl.dram.avgQLat                 13492.18                       # Average queueing delay per DRAM burst ((Tick/Count))
system.mem_ctrl.dram.avgBusLat                5000.00                       # Average bus latency per DRAM burst ((Tick/Count))
system.mem_ctrl.dram.avgMemAccLat            32242.18                       # Average memory access latency per DRAM burst ((Tick/Count))
system.mem_ctrl.dram.readRowHits                 3076                       # Number of row buffer hits during reads (Count)
system.mem_ctrl.dram.writeRowHits                 396                       # Number of row buffer hits during writes (Count)
system.mem_ctrl.dram.readRowHitRate             59.03                       # Row buffer hit rate for reads (Ratio)
system.mem_ctrl.dram.writeRowHitRate            76.74                       # Row buffer hit rate for writes (Ratio)
system.mem_ctrl.dram.bytesPerActivate::samples         2261                       # Bytes accessed per row activation (Byte)
system.mem_ctrl.dram.bytesPerActivate::mean   162.674923                       # Bytes accessed per row activation (Byte)
system.mem_ctrl.dram.bytesPerActivate::gmean   120.193635                       # Bytes accessed per row activation (Byte)
system.mem_ctrl.dram.bytesPerActivate::stdev   162.641837                       # Bytes accessed per row activation (Byte)
system.mem_ctrl.dram.bytesPerActivate::0-127         1051     46.48%     46.48% # Bytes accessed per row activation (Byte)
system.mem_ctrl.dram.bytesPerActivate::128-255          772     34.14%     80.63% # Bytes accessed per row activation (Byte)
system.mem_ctrl.dram.bytesPerActivate::256-383          229     10.13%     90.76% # Bytes accessed per row activation (Byte)
system.mem_ctrl.dram.bytesPerActivate::384-511          101      4.47%     95.22% # Bytes accessed per row activation (Byte)
system.mem_ctrl.dram.bytesPerActivate::512-639           34      1.50%     96.73% # Bytes accessed per row activation (Byte)
system.mem_ctrl.dram.bytesPerActivate::640-767           33      1.46%     98.19% # Bytes accessed per row activation (Byte)
system.mem_ctrl.dram.bytesPerActivate::768-895            9      0.40%     98.58% # Bytes accessed per row activation (Byte)
system.mem_ctrl.dram.bytesPerActivate::896-1023            8      0.35%     98.94% # Bytes accessed per row activation (Byte)
system.mem_ctrl.dram.bytesPerActivate::1024-1151           24      1.06%    100.00% # Bytes accessed per row activation (Byte)
system.mem_ctrl.dram.bytesPerActivate::total         2261                       # Bytes accessed per row activation (Byte)
system.mem_ctrl.dram.dramBytesRead             333504                       # Total bytes read (Byte)
system.mem_ctrl.dram.dramBytesWritten           33024                       # Total bytes written (Byte)
system.mem_ctrl.dram.avgRdBW               344.286201                       # Average DRAM read bandwidth in MiBytes/s ((Byte/Second))
system.mem_ctrl.dram.avgWrBW                34.091668                       # Average DRAM write bandwidth in MiBytes/s ((Byte/Second))
system.mem_ctrl.dram.peakBW                  12800.00                       # Theoretical peak bandwidth in MiByte/s ((Byte/Second))
system.mem_ctrl.dram.busUtil                     2.96                       # Data bus utilization in percentage (Ratio)
system.mem_ctrl.dram.busUtilRead                 2.69                       # Data bus utilization in percentage for reads (Ratio)
system.mem_ctrl.dram.busUtilWrite                0.27                       # Data bus utilization in percentage for writes (Ratio)
system.mem_ctrl.dram.pageHitRate                60.63                       # Row buffer hit rate, read and write combined (Ratio)
system.mem_ctrl.dram.power_state.pwrStateResidencyTicks::UNDEFINED    968682449                       # Cumulative time (in ticks) in various power states (Tick)
system.mem_ctrl.dram.rank0.actEnergy          8218140                       # Energy for activate commands per rank (pJ) (Joule)
system.mem_ctrl.dram.rank0.preEnergy          4387020                       # Energy for precharge commands per rank (pJ) (Joule)
system.mem_ctrl.dram.rank0.readEnergy        20391840                       # Energy for read commands per rank (pJ) (Joule)
system.mem_ctrl.dram.rank0.writeEnergy        2134980                       # Energy for write commands per rank (pJ) (Joule)
system.mem_ctrl.dram.rank0.refreshEnergy 76830000.000000                       # Energy for refresh commands per rank (pJ) (Joule)
system.mem_ctrl.dram.rank0.actBackEnergy    410656500                       # Energy for active background per rank (pJ) (Joule)
system.mem_ctrl.dram.rank0.preBackEnergy     26158080                       # Energy for precharge background per rank (pJ) (Joule)
system.mem_ctrl.dram.rank0.actPowerDownEnergy            0                       # Energy for active power-down per rank (pJ) (Joule)
system.mem_ctrl.dram.rank0.prePowerDownEnergy            0                       # Energy for precharge power-down per rank (pJ) (Joule)
system.mem_ctrl.dram.rank0.selfRefreshEnergy            0                       # Energy for self refresh per rank (pJ) (Joule)
system.mem_ctrl.dram.rank0.totalEnergy      548776560                       # Total energy per rank (pJ) (Joule)
system.mem_ctrl.dram.rank0.averagePower    566.518533                       # Core power per rank (mW) (Watt)
system.mem_ctrl.dram.rank0.totalIdleTime            0                       # Total Idle time Per DRAM Rank (Tick)
system.mem_ctrl.dram.rank0.pwrStateTime::IDLE     64402660                       # Time in different power states (Tick)
system.mem_ctrl.dram.rank0.pwrStateTime::REF     32500000                       # Time in different power states (Tick)
system.mem_ctrl.dram.rank0.pwrStateTime::SREF            0                       # Time in different power states (Tick)
system.mem_ctrl.dram.rank0.pwrStateTime::PRE_PDN            0                       # Time in different power states (Tick)
system.mem_ctrl.dram.rank0.pwrStateTime::ACT    871779789                       # Time in different power states (Tick)
system.mem_ctrl.dram.rank0.pwrStateTime::ACT_PDN            0                       # Time in different power states (Tick)
system.mem_ctrl.dram.rank1.actEnergy          7882560                       # Energy for activate commands per rank (pJ) (Joule)
system.mem_ctrl.dram.rank1.preEnergy          4193475                       # Energy for precharge commands per rank (pJ) (Joule)
system.mem_ctrl.dram.rank1.readEnergy        16814700                       # Energy for read commands per rank (pJ) (Joule)
system.mem_ctrl.dram.rank1.writeEnergy         558540                       # Energy for write commands per rank (pJ) (Joule)
system.mem_ctrl.dram.rank1.refreshEnergy 76830000.000000                       # Energy for refresh commands per rank (pJ) (Joule)
system.mem_ctrl.dram.rank1.actBackEnergy    401449860                       # Energy for active background per rank (pJ) (Joule)
system.mem_ctrl.dram.rank1.preBackEnergy     33911040                       # Energy for precharge background per rank (pJ) (Joule)
system.mem_ctrl.dram.rank1.actPowerDownEnergy            0                       # Energy for active power-down per rank (pJ) (Joule)
system.mem_ctrl.dram.rank1.prePowerDownEnergy            0                       # Energy for precharge power-down per rank (pJ) (Joule)
system.mem_ctrl.dram.rank1.selfRefreshEnergy            0                       # Energy for self refresh per rank (pJ) (Joule)
system.mem_ctrl.dram.rank1.totalEnergy      541640175                       # Total energy per rank (pJ) (Joule)
system.mem_ctrl.dram.rank1.averagePower    559.151428                       # Core power per rank (mW) (Watt)
system.mem_ctrl.dram.rank1.totalIdleTime            0                       # Total Idle time Per DRAM Rank (Tick)
system.mem_ctrl.dram.rank1.pwrStateTime::IDLE     84536488                       # Time in different power states (Tick)
system.mem_ctrl.dram.rank1.pwrStateTime::REF     32500000                       # Time in different power states (Tick)
system.mem_ctrl.dram.rank1.pwrStateTime::SREF            0                       # Time in different power states (Tick)
system.mem_ctrl.dram.rank1.pwrStateTime::PRE_PDN            0                       # Time in different power states (Tick)
system.mem_ctrl.dram.rank1.pwrStateTime::ACT    851645961                       # Time in different power states (Tick)
system.mem_ctrl.dram.rank1.pwrStateTime::ACT_PDN            0                       # Time in different power states (Tick)
system.mem_ctrl.power_state.pwrStateResidencyTicks::UNDEFINED    968682449                       # Cumulative time (in ticks) in various power states (Tick)
system.membus.transDist::ReadResp                5432                       # Transaction distribution (Count)
system.membus.transDist::WritebackDirty           791                       # Transaction distribution (Count)
system.membus.transDist::CleanEvict              4971                       # Transaction distribution (Count)
system.membus.transDist::UpgradeReq                 1                       # Transaction distribution (Count)
system.membus.transDist::ReadExReq                332                       # Transaction distribution (Count)
system.membus.transDist::ReadExResp               332                       # Transaction distribution (Count)
system.membus.transDist::ReadSharedReq           5430                       # Transaction distribution (Count)
system.membus.pktCount_system.cpu.l1d.mem_side_port::system.mem_ctrl.port         8731                       # Packet count per connected requestor and responder (Count)
system.membus.pktCount_system.cpu.l1d.mem_side_port::total         8731                       # Packet count per connected requestor and responder (Count)
system.membus.pktCount_system.cpu.l1i.mem_side_port::system.mem_ctrl.port         8557                       # Packet count per connected requestor and responder (Count)
system.membus.pktCount_system.cpu.l1i.mem_side_port::total         8557                       # Packet count per connected requestor and responder (Count)
system.membus.pktCount::total                   17288                       # Packet count per connected requestor and responder (Count)
system.membus.pktSize_system.cpu.l1d.mem_side_port::system.mem_ctrl.port       236864                       # Cumulative packet size per connected requestor and responder (Byte)
system.membus.pktSize_system.cpu.l1d.mem_side_port::total       236864                       # Cumulative packet size per connected requestor and responder (Byte)
system.membus.pktSize_system.cpu.l1i.mem_side_port::system.mem_ctrl.port       182592                       # Cumulative packet size per connected requestor and responder (Byte)
system.membus.pktSize_system.cpu.l1i.mem_side_port::total       182592                       # Cumulative packet size per connected requestor and responder (Byte)
system.membus.pktSize::total                   419456                       # Cumulative packet size per connected requestor and responder (Byte)
system.membus.snoops                                1                       # Total snoops (Count)
system.membus.snoopTraffic                         64                       # Total snoop traffic (Byte)
system.membus.snoopFanout::samples               5763                       # Request fanout histogram (Count)
system.membus.snoopFanout::mean              0.005032                       # Request fanout histogram (Count)
system.membus.snoopFanout::stdev             0.070765                       # Request fanout histogram (Count)
system.membus.snoopFanout::underflows               0      0.00%      0.00% # Request fanout histogram (Count)
system.membus.snoopFanout::0                     5734     99.50%     99.50% # Request fanout histogram (Count)
system.membus.snoopFanout::1                       29      0.50%    100.00% # Request fanout histogram (Count)
system.membus.snoopFanout::2                        0      0.00%    100.00% # Request fanout histogram (Count)
system.membus.snoopFanout::overflows                0      0.00%    100.00% # Request fanout histogram (Count)
system.membus.snoopFanout::min_value                0                       # Request fanout histogram (Count)
system.membus.snoopFanout::max_value                1                       # Request fanout histogram (Count)
system.membus.snoopFanout::total                 5763                       # Request fanout histogram (Count)
system.membus.power_state.pwrStateResidencyTicks::UNDEFINED    968682449                       # Cumulative time (in ticks) in various power states (Tick)
system.membus.reqLayer2.occupancy           195848437                       # Layer occupancy (ticks) (Tick)
system.membus.reqLayer2.utilization               0.2                       # Layer utilization (Ratio)
system.membus.respLayer2.occupancy          197242070                       # Layer occupancy (ticks) (Tick)
system.membus.respLayer2.utilization              0.2                       # Layer utilization (Ratio)
system.membus.respLayer3.occupancy          195508593                       # Layer occupancy (ticks) (Tick)
system.membus.respLayer3.utilization              0.2                       # Layer utilization (Ratio)
system.membus.snoop_filter.totRequests          11525                       # Total number of requests made to the snoop filter. (Count)
system.membus.snoop_filter.hitSingleRequests         5762                       # Number of requests hitting in the snoop filter with a single holder of the requested data. (Count)
system.membus.snoop_filter.hitMultiRequests           29                       # Number of requests hitting in the snoop filter with multiple (>1) holders of the requested data. (Count)
system.membus.snoop_filter.totSnoops                0                       # Total number of snoops made to the snoop filter. (Count)
system.membus.snoop_filter.hitSingleSnoops            0                       # Number of snoops hitting in the snoop filter with a single holder of the requested data. (Count)
system.membus.snoop_filter.hitMultiSnoops            0                       # Number of snoops hitting in the snoop filter with multiple (>1) holders of the requested data. (Count)
system.workload.inst.arm                            0                       # number of arm instructions executed (Count)
system.workload.inst.quiesce                        0                       # number of quiesce instructions executed (Count)

---------- End Simulation Statistics   ----------
