
---------- Begin Simulation Statistics ----------
simSeconds                                   1.020900                       # Number of seconds simulated (Second)
simTicks                                 1020900370186                       # Number of ticks simulated (Tick)
finalTick                                1020900370186                       # Number of ticks from beginning of simulation (restored from checkpoints and never reset) (Tick)
simFreq                                  1000000000000                       # The number of ticks per simulated second ((Tick/Second))
hostSeconds                                   2261.00                       # Real time elapsed on the host (Second)
hostTickRate                                451525373                       # The number of ticks simulated per host second (ticks/s) ((Tick/Second))
hostMemory                                    8641820                       # Number of bytes of host memory used (Byte)
simInsts                                    120452794                       # Number of instructions simulated (Count)
simOps                                      245547212                       # Number of ops (including micro ops) simulated (Count)
hostInstRate                                    53274                       # Simulator instruction rate (inst/s) ((Count/Second))
hostOpRate                                     108601                       # Simulator op (including micro ops) rate (op/s) ((Count/Second))
system.clk_domain.clock                         13333                       # Clock period in ticks (Tick)
system.clk_domain.voltage_domain.voltage            1                       # Voltage in Volts (Volt)
system.cpu.numCycles                         76569443                       # Number of cpu cycles simulated (Cycle)
system.cpu.cpi                               0.635680                       # CPI: cycles per instruction (core level) ((Cycle/Count))
system.cpu.ipc                               1.573118                       # IPC: instructions per cycle (core level) ((Count/Cycle))
system.cpu.numWorkItemsStarted                      0                       # Number of work items this cpu started (Count)
system.cpu.numWorkItemsCompleted                    0                       # Number of work items this cpu completed (Count)
system.cpu.instsAdded                       277152307                       # Number of instructions added to the IQ (excludes non-spec) (Count)
system.cpu.nonSpecInstsAdded                     2428                       # Number of non-speculative instructions added to the IQ (Count)
system.cpu.instsIssued                      269497074                       # Number of instructions issued (Count)
system.cpu.squashedInstsIssued                   7055                       # Number of squashed instructions issued (Count)
system.cpu.squashedInstsExamined             31607442                       # Number of squashed instructions iterated over during squash; mainly for profiling (Count)
system.cpu.squashedOperandsExamined          29115791                       # Number of squashed operands that are examined and possibly removed from graph (Count)
system.cpu.squashedNonSpecRemoved                 209                       # Number of squashed non-spec instructions that were removed (Count)
system.cpu.numIssuedDist::samples            76566854                       # Number of insts issued each cycle (Count)
system.cpu.numIssuedDist::mean               3.519762                       # Number of insts issued each cycle (Count)
system.cpu.numIssuedDist::stdev              2.371752                       # Number of insts issued each cycle (Count)
system.cpu.numIssuedDist::underflows                0      0.00%      0.00% # Number of insts issued each cycle (Count)
system.cpu.numIssuedDist::0                  10265812     13.41%     13.41% # Number of insts issued each cycle (Count)
system.cpu.numIssuedDist::1                  10090168     13.18%     26.59% # Number of insts issued each cycle (Count)
system.cpu.numIssuedDist::2                   8185112     10.69%     37.28% # Number of insts issued each cycle (Count)
system.cpu.numIssuedDist::3                   5910185      7.72%     45.00% # Number of insts issued each cycle (Count)
system.cpu.numIssuedDist::4                  14661561     19.15%     64.14% # Number of insts issued each cycle (Count)
system.cpu.numIssuedDist::5                  12192055     15.92%     80.07% # Number of insts issued each cycle (Count)
system.cpu.numIssuedDist::6                   6518465      8.51%     88.58% # Number of insts issued each cycle (Count)
system.cpu.numIssuedDist::7                   3359150      4.39%     92.97% # Number of insts issued each cycle (Count)
system.cpu.numIssuedDist::8                   5384346      7.03%    100.00% # Number of insts issued each cycle (Count)
system.cpu.numIssuedDist::overflows                 0      0.00%    100.00% # Number of insts issued each cycle (Count)
system.cpu.numIssuedDist::min_value                 0                       # Number of insts issued each cycle (Count)
system.cpu.numIssuedDist::max_value                 8                       # Number of insts issued each cycle (Count)
system.cpu.numIssuedDist::total              76566854                       # Number of insts issued each cycle (Count)
system.cpu.statFuBusy::No_OpClass                   0      0.00%      0.00% # attempts to use FU when none available (Count)
system.cpu.statFuBusy::IntAlu                 1781133     72.54%     72.54% # attempts to use FU when none available (Count)
system.cpu.statFuBusy::IntMult                      0      0.00%     72.54% # attempts to use FU when none available (Count)
system.cpu.statFuBusy::IntDiv                       0      0.00%     72.54% # attempts to use FU when none available (Count)
system.cpu.statFuBusy::FloatAdd                     0      0.00%     72.54% # attempts to use FU when none available (Count)
system.cpu.statFuBusy::FloatCmp                     0      0.00%     72.54% # attempts to use FU when none available (Count)
system.cpu.statFuBusy::FloatCvt                     0      0.00%     72.54% # attempts to use FU when none available (Count)
system.cpu.statFuBusy::FloatMult                    0      0.00%     72.54% # attempts to use FU when none available (Count)
system.cpu.statFuBusy::FloatMultAcc                 0      0.00%     72.54% # attempts to use FU when none available (Count)
system.cpu.statFuBusy::FloatDiv                     0      0.00%     72.54% # attempts to use FU when none available (Count)
system.cpu.statFuBusy::FloatMisc                    0      0.00%     72.54% # attempts to use FU when none available (Count)
system.cpu.statFuBusy::FloatSqrt                    0      0.00%     72.54% # attempts to use FU when none available (Count)
system.cpu.statFuBusy::SimdAdd                      1      0.00%     72.54% # attempts to use FU when none available (Count)
system.cpu.statFuBusy::SimdAddAcc                   0      0.00%     72.54% # attempts to use FU when none available (Count)
system.cpu.statFuBusy::SimdAlu                    111      0.00%     72.55% # attempts to use FU when none available (Count)
system.cpu.statFuBusy::SimdCmp                      0      0.00%     72.55% # attempts to use FU when none available (Count)
system.cpu.statFuBusy::SimdCvt                    191      0.01%     72.55% # attempts to use FU when none available (Count)
system.cpu.statFuBusy::SimdMisc                    18      0.00%     72.56% # attempts to use FU when none available (Count)
system.cpu.statFuBusy::SimdMult                     0      0.00%     72.56% # attempts to use FU when none available (Count)
system.cpu.statFuBusy::SimdMultAcc                  0      0.00%     72.56% # attempts to use FU when none available (Count)
system.cpu.statFuBusy::SimdMatMultAcc               0      0.00%     72.56% # attempts to use FU when none available (Count)
system.cpu.statFuBusy::SimdShift                   19      0.00%     72.56% # attempts to use FU when none available (Count)
system.cpu.statFuBusy::SimdShiftAcc                 0      0.00%     72.56% # attempts to use FU when none available (Count)
system.cpu.statFuBusy::SimdDiv                      0      0.00%     72.56% # attempts to use FU when none available (Count)
system.cpu.statFuBusy::SimdSqrt                     0      0.00%     72.56% # attempts to use FU when none available (Count)
system.cpu.statFuBusy::SimdFloatAdd                 0      0.00%     72.56% # attempts to use FU when none available (Count)
system.cpu.statFuBusy::SimdFloatAlu                 0      0.00%     72.56% # attempts to use FU when none available (Count)
system.cpu.statFuBusy::SimdFloatCmp                 0      0.00%     72.56% # attempts to use FU when none available (Count)
system.cpu.statFuBusy::SimdFloatCvt                 0      0.00%     72.56% # attempts to use FU when none available (Count)
system.cpu.statFuBusy::SimdFloatDiv                 0      0.00%     72.56% # attempts to use FU when none available (Count)
system.cpu.statFuBusy::SimdFloatMisc                0      0.00%     72.56% # attempts to use FU when none available (Count)
system.cpu.statFuBusy::SimdFloatMult                0      0.00%     72.56% # attempts to use FU when none available (Count)
system.cpu.statFuBusy::SimdFloatMultAcc             0      0.00%     72.56% # attempts to use FU when none available (Count)
system.cpu.statFuBusy::SimdFloatMatMultAcc            0      0.00%     72.56% # attempts to use FU when none available (Count)
system.cpu.statFuBusy::SimdFloatSqrt                0      0.00%     72.56% # attempts to use FU when none available (Count)
system.cpu.statFuBusy::SimdReduceAdd                0      0.00%     72.56% # attempts to use FU when none available (Count)
system.cpu.statFuBusy::SimdReduceAlu                0      0.00%     72.56% # attempts to use FU when none available (Count)
system.cpu.statFuBusy::SimdReduceCmp                0      0.00%     72.56% # attempts to use FU when none available (Count)
system.cpu.statFuBusy::SimdFloatReduceAdd            0      0.00%     72.56% # attempts to use FU when none available (Count)
system.cpu.statFuBusy::SimdFloatReduceCmp            0      0.00%     72.56% # attempts to use FU when none available (Count)
system.cpu.statFuBusy::SimdAes                      0      0.00%     72.56% # attempts to use FU when none available (Count)
system.cpu.statFuBusy::SimdAesMix                   0      0.00%     72.56% # attempts to use FU when none available (Count)
system.cpu.statFuBusy::SimdSha1Hash                 0      0.00%     72.56% # attempts to use FU when none available (Count)
system.cpu.statFuBusy::SimdSha1Hash2                0      0.00%     72.56% # attempts to use FU when none available (Count)
system.cpu.statFuBusy::SimdSha256Hash               0      0.00%     72.56% # attempts to use FU when none available (Count)
system.cpu.statFuBusy::SimdSha256Hash2              0      0.00%     72.56% # attempts to use FU when none available (Count)
system.cpu.statFuBusy::SimdShaSigma2                0      0.00%     72.56% # attempts to use FU when none available (Count)
system.cpu.statFuBusy::SimdShaSigma3                0      0.00%     72.56% # attempts to use FU when none available (Count)
system.cpu.statFuBusy::SimdPredAlu                  0      0.00%     72.56% # attempts to use FU when none available (Count)
system.cpu.statFuBusy::Matrix                       0      0.00%     72.56% # attempts to use FU when none available (Count)
system.cpu.statFuBusy::MatrixMov                    0      0.00%     72.56% # attempts to use FU when none available (Count)
system.cpu.statFuBusy::MatrixOP                     0      0.00%     72.56% # attempts to use FU when none available (Count)
system.cpu.statFuBusy::MemRead                 403664     16.44%     89.00% # attempts to use FU when none available (Count)
system.cpu.statFuBusy::MemWrite                269172     10.96%     99.96% # attempts to use FU when none available (Count)
system.cpu.statFuBusy::FloatMemRead               553      0.02%     99.98% # attempts to use FU when none available (Count)
system.cpu.statFuBusy::FloatMemWrite              431      0.02%    100.00% # attempts to use FU when none available (Count)
system.cpu.statFuBusy::IprAccess                    0      0.00%    100.00% # attempts to use FU when none available (Count)
system.cpu.statFuBusy::InstPrefetch                 0      0.00%    100.00% # attempts to use FU when none available (Count)
system.cpu.statFuBusy::SimdUnitStrideLoad            0      0.00%    100.00% # attempts to use FU when none available (Count)
system.cpu.statFuBusy::SimdUnitStrideStore            0      0.00%    100.00% # attempts to use FU when none available (Count)
system.cpu.statFuBusy::SimdUnitStrideMaskLoad            0      0.00%    100.00% # attempts to use FU when none available (Count)
system.cpu.statFuBusy::SimdUnitStrideMaskStore            0      0.00%    100.00% # attempts to use FU when none available (Count)
system.cpu.statFuBusy::SimdStridedLoad              0      0.00%    100.00% # attempts to use FU when none available (Count)
system.cpu.statFuBusy::SimdStridedStore             0      0.00%    100.00% # attempts to use FU when none available (Count)
system.cpu.statFuBusy::SimdIndexedLoad              0      0.00%    100.00% # attempts to use FU when none available (Count)
system.cpu.statFuBusy::SimdIndexedStore             0      0.00%    100.00% # attempts to use FU when none available (Count)
system.cpu.statFuBusy::SimdWholeRegisterLoad            0      0.00%    100.00% # attempts to use FU when none available (Count)
system.cpu.statFuBusy::SimdWholeRegisterStore            0      0.00%    100.00% # attempts to use FU when none available (Count)
system.cpu.statFuBusy::SimdUnitStrideFaultOnlyFirstLoad            0      0.00%    100.00% # attempts to use FU when none available (Count)
system.cpu.statFuBusy::SimdUnitStrideSegmentedLoad            0      0.00%    100.00% # attempts to use FU when none available (Count)
system.cpu.statFuBusy::SimdUnitStrideSegmentedStore            0      0.00%    100.00% # attempts to use FU when none available (Count)
system.cpu.statFuBusy::SimdExt                      0      0.00%    100.00% # attempts to use FU when none available (Count)
system.cpu.statFuBusy::SimdFloatExt                 0      0.00%    100.00% # attempts to use FU when none available (Count)
system.cpu.statFuBusy::SimdConfig                   0      0.00%    100.00% # attempts to use FU when none available (Count)
system.cpu.statIssuedInstType_0::No_OpClass      2100237      0.78%      0.78% # Number of instructions issued per FU type, per thread (Count)
system.cpu.statIssuedInstType_0::IntAlu     189403189     70.28%     71.06% # Number of instructions issued per FU type, per thread (Count)
system.cpu.statIssuedInstType_0::IntMult       518508      0.19%     71.25% # Number of instructions issued per FU type, per thread (Count)
system.cpu.statIssuedInstType_0::IntDiv         42335      0.02%     71.27% # Number of instructions issued per FU type, per thread (Count)
system.cpu.statIssuedInstType_0::FloatAdd       786308      0.29%     71.56% # Number of instructions issued per FU type, per thread (Count)
system.cpu.statIssuedInstType_0::FloatCmp            0      0.00%     71.56% # Number of instructions issued per FU type, per thread (Count)
system.cpu.statIssuedInstType_0::FloatCvt         1279      0.00%     71.56% # Number of instructions issued per FU type, per thread (Count)
system.cpu.statIssuedInstType_0::FloatMult            0      0.00%     71.56% # Number of instructions issued per FU type, per thread (Count)
system.cpu.statIssuedInstType_0::FloatMultAcc            0      0.00%     71.56% # Number of instructions issued per FU type, per thread (Count)
system.cpu.statIssuedInstType_0::FloatDiv            0      0.00%     71.56% # Number of instructions issued per FU type, per thread (Count)
system.cpu.statIssuedInstType_0::FloatMisc            0      0.00%     71.56% # Number of instructions issued per FU type, per thread (Count)
system.cpu.statIssuedInstType_0::FloatSqrt            0      0.00%     71.56% # Number of instructions issued per FU type, per thread (Count)
system.cpu.statIssuedInstType_0::SimdAdd         7304      0.00%     71.56% # Number of instructions issued per FU type, per thread (Count)
system.cpu.statIssuedInstType_0::SimdAddAcc            0      0.00%     71.56% # Number of instructions issued per FU type, per thread (Count)
system.cpu.statIssuedInstType_0::SimdAlu       535939      0.20%     71.76% # Number of instructions issued per FU type, per thread (Count)
system.cpu.statIssuedInstType_0::SimdCmp            6      0.00%     71.76% # Number of instructions issued per FU type, per thread (Count)
system.cpu.statIssuedInstType_0::SimdCvt        16091      0.01%     71.77% # Number of instructions issued per FU type, per thread (Count)
system.cpu.statIssuedInstType_0::SimdMisc      1311638      0.49%     72.25% # Number of instructions issued per FU type, per thread (Count)
system.cpu.statIssuedInstType_0::SimdMult            0      0.00%     72.25% # Number of instructions issued per FU type, per thread (Count)
system.cpu.statIssuedInstType_0::SimdMultAcc            0      0.00%     72.25% # Number of instructions issued per FU type, per thread (Count)
system.cpu.statIssuedInstType_0::SimdMatMultAcc            0      0.00%     72.25% # Number of instructions issued per FU type, per thread (Count)
system.cpu.statIssuedInstType_0::SimdShift         3715      0.00%     72.26% # Number of instructions issued per FU type, per thread (Count)
system.cpu.statIssuedInstType_0::SimdShiftAcc            0      0.00%     72.26% # Number of instructions issued per FU type, per thread (Count)
system.cpu.statIssuedInstType_0::SimdDiv            0      0.00%     72.26% # Number of instructions issued per FU type, per thread (Count)
system.cpu.statIssuedInstType_0::SimdSqrt            0      0.00%     72.26% # Number of instructions issued per FU type, per thread (Count)
system.cpu.statIssuedInstType_0::SimdFloatAdd       258983      0.10%     72.35% # Number of instructions issued per FU type, per thread (Count)
system.cpu.statIssuedInstType_0::SimdFloatAlu            0      0.00%     72.35% # Number of instructions issued per FU type, per thread (Count)
system.cpu.statIssuedInstType_0::SimdFloatCmp            0      0.00%     72.35% # Number of instructions issued per FU type, per thread (Count)
system.cpu.statIssuedInstType_0::SimdFloatCvt       517966      0.19%     72.54% # Number of instructions issued per FU type, per thread (Count)
system.cpu.statIssuedInstType_0::SimdFloatDiv       258983      0.10%     72.64% # Number of instructions issued per FU type, per thread (Count)
system.cpu.statIssuedInstType_0::SimdFloatMisc            0      0.00%     72.64% # Number of instructions issued per FU type, per thread (Count)
system.cpu.statIssuedInstType_0::SimdFloatMult            0      0.00%     72.64% # Number of instructions issued per FU type, per thread (Count)
system.cpu.statIssuedInstType_0::SimdFloatMultAcc            0      0.00%     72.64% # Number of instructions issued per FU type, per thread (Count)
system.cpu.statIssuedInstType_0::SimdFloatMatMultAcc            0      0.00%     72.64% # Number of instructions issued per FU type, per thread (Count)
system.cpu.statIssuedInstType_0::SimdFloatSqrt            0      0.00%     72.64% # Number of instructions issued per FU type, per thread (Count)
system.cpu.statIssuedInstType_0::SimdReduceAdd            0      0.00%     72.64% # Number of instructions issued per FU type, per thread (Count)
system.cpu.statIssuedInstType_0::SimdReduceAlu            0      0.00%     72.64% # Number of instructions issued per FU type, per thread (Count)
system.cpu.statIssuedInstType_0::SimdReduceCmp            0      0.00%     72.64% # Number of instructions issued per FU type, per thread (Count)
system.cpu.statIssuedInstType_0::SimdFloatReduceAdd            0      0.00%     72.64% # Number of instructions issued per FU type, per thread (Count)
system.cpu.statIssuedInstType_0::SimdFloatReduceCmp            0      0.00%     72.64% # Number of instructions issued per FU type, per thread (Count)
system.cpu.statIssuedInstType_0::SimdAes            0      0.00%     72.64% # Number of instructions issued per FU type, per thread (Count)
system.cpu.statIssuedInstType_0::SimdAesMix            0      0.00%     72.64% # Number of instructions issued per FU type, per thread (Count)
system.cpu.statIssuedInstType_0::SimdSha1Hash            0      0.00%     72.64% # Number of instructions issued per FU type, per thread (Count)
system.cpu.statIssuedInstType_0::SimdSha1Hash2            0      0.00%     72.64% # Number of instructions issued per FU type, per thread (Count)
system.cpu.statIssuedInstType_0::SimdSha256Hash            0      0.00%     72.64% # Number of instructions issued per FU type, per thread (Count)
system.cpu.statIssuedInstType_0::SimdSha256Hash2            0      0.00%     72.64% # Number of instructions issued per FU type, per thread (Count)
system.cpu.statIssuedInstType_0::SimdShaSigma2            0      0.00%     72.64% # Number of instructions issued per FU type, per thread (Count)
system.cpu.statIssuedInstType_0::SimdShaSigma3            0      0.00%     72.64% # Number of instructions issued per FU type, per thread (Count)
system.cpu.statIssuedInstType_0::SimdPredAlu            0      0.00%     72.64% # Number of instructions issued per FU type, per thread (Count)
system.cpu.statIssuedInstType_0::Matrix             0      0.00%     72.64% # Number of instructions issued per FU type, per thread (Count)
system.cpu.statIssuedInstType_0::MatrixMov            0      0.00%     72.64% # Number of instructions issued per FU type, per thread (Count)
system.cpu.statIssuedInstType_0::MatrixOP            0      0.00%     72.64% # Number of instructions issued per FU type, per thread (Count)
system.cpu.statIssuedInstType_0::MemRead     47891354     17.77%     90.41% # Number of instructions issued per FU type, per thread (Count)
system.cpu.statIssuedInstType_0::MemWrite     24765201      9.19%     99.60% # Number of instructions issued per FU type, per thread (Count)
system.cpu.statIssuedInstType_0::FloatMemRead       932513      0.35%     99.95% # Number of instructions issued per FU type, per thread (Count)
system.cpu.statIssuedInstType_0::FloatMemWrite       145525      0.05%    100.00% # Number of instructions issued per FU type, per thread (Count)
system.cpu.statIssuedInstType_0::IprAccess            0      0.00%    100.00% # Number of instructions issued per FU type, per thread (Count)
system.cpu.statIssuedInstType_0::InstPrefetch            0      0.00%    100.00% # Number of instructions issued per FU type, per thread (Count)
system.cpu.statIssuedInstType_0::SimdUnitStrideLoad            0      0.00%    100.00% # Number of instructions issued per FU type, per thread (Count)
system.cpu.statIssuedInstType_0::SimdUnitStrideStore            0      0.00%    100.00% # Number of instructions issued per FU type, per thread (Count)
system.cpu.statIssuedInstType_0::SimdUnitStrideMaskLoad            0      0.00%    100.00% # Number of instructions issued per FU type, per thread (Count)
system.cpu.statIssuedInstType_0::SimdUnitStrideMaskStore            0      0.00%    100.00% # Number of instructions issued per FU type, per thread (Count)
system.cpu.statIssuedInstType_0::SimdStridedLoad            0      0.00%    100.00% # Number of instructions issued per FU type, per thread (Count)
system.cpu.statIssuedInstType_0::SimdStridedStore            0      0.00%    100.00% # Number of instructions issued per FU type, per thread (Count)
system.cpu.statIssuedInstType_0::SimdIndexedLoad            0      0.00%    100.00% # Number of instructions issued per FU type, per thread (Count)
system.cpu.statIssuedInstType_0::SimdIndexedStore            0      0.00%    100.00% # Number of instructions issued per FU type, per thread (Count)
system.cpu.statIssuedInstType_0::SimdWholeRegisterLoad            0      0.00%    100.00% # Number of instructions issued per FU type, per thread (Count)
system.cpu.statIssuedInstType_0::SimdWholeRegisterStore            0      0.00%    100.00% # Number of instructions issued per FU type, per thread (Count)
system.cpu.statIssuedInstType_0::SimdUnitStrideFaultOnlyFirstLoad            0      0.00%    100.00% # Number of instructions issued per FU type, per thread (Count)
system.cpu.statIssuedInstType_0::SimdUnitStrideSegmentedLoad            0      0.00%    100.00% # Number of instructions issued per FU type, per thread (Count)
system.cpu.statIssuedInstType_0::SimdUnitStrideSegmentedStore            0      0.00%    100.00% # Number of instructions issued per FU type, per thread (Count)
system.cpu.statIssuedInstType_0::SimdExt            0      0.00%    100.00% # Number of instructions issued per FU type, per thread (Count)
system.cpu.statIssuedInstType_0::SimdFloatExt            0      0.00%    100.00% # Number of instructions issued per FU type, per thread (Count)
system.cpu.statIssuedInstType_0::SimdConfig            0      0.00%    100.00% # Number of instructions issued per FU type, per thread (Count)
system.cpu.statIssuedInstType_0::total      269497074                       # Number of instructions issued per FU type, per thread (Count)
system.cpu.issueRate                         3.519643                       # Inst issue rate ((Count/Cycle))
system.cpu.fuBusy                             2455293                       # FU busy when requested (Count)
system.cpu.fuBusyRate                        0.009111                       # FU busy rate (busy events/executed inst) ((Count/Count))
system.cpu.intInstQueueReads                608200915                       # Number of integer instruction queue reads (Count)
system.cpu.intInstQueueWrites               302232222                       # Number of integer instruction queue writes (Count)
system.cpu.intInstQueueWakeupAccesses       262848870                       # Number of integer instruction queue wakeup accesses (Count)
system.cpu.fpInstQueueReads                   9822431                       # Number of floating instruction queue reads (Count)
system.cpu.fpInstQueueWrites                  6530428                       # Number of floating instruction queue writes (Count)
system.cpu.fpInstQueueWakeupAccesses          4905070                       # Number of floating instruction queue wakeup accesses (Count)
system.cpu.vecInstQueueReads                        0                       # Number of vector instruction queue reads (Count)
system.cpu.vecInstQueueWrites                       0                       # Number of vector instruction queue writes (Count)
system.cpu.vecInstQueueWakeupAccesses               0                       # Number of vector instruction queue wakeup accesses (Count)
system.cpu.intAluAccesses                   264940532                       # Number of integer alu accesses (Count)
system.cpu.fpAluAccesses                      4911598                       # Number of floating point alu accesses (Count)
system.cpu.vecAluAccesses                           0                       # Number of vector alu accesses (Count)
system.cpu.numSquashedInsts                   1068849                       # Number of squashed instructions skipped in execute (Count)
system.cpu.numSwp                                   0                       # Number of swp insts executed (Count)
system.cpu.timesIdled                             740                       # Number of times that the entire CPU went into an idle state and unscheduled itself (Count)
system.cpu.idleCycles                            2589                       # Total number of cycles that the CPU has spent unscheduled due to idling (Cycle)
system.cpu.MemDepUnit__0.insertedLoads       50147902                       # Number of loads inserted to the mem dependence unit. (Count)
system.cpu.MemDepUnit__0.insertedStores      25831403                       # Number of stores inserted to the mem dependence unit. (Count)
system.cpu.MemDepUnit__0.conflictingLoads     13277794                       # Number of conflicting loads. (Count)
system.cpu.MemDepUnit__0.conflictingStores     13118972                       # Number of conflicting stores. (Count)
system.cpu.MemDepUnit__1.insertedLoads              0                       # Number of loads inserted to the mem dependence unit. (Count)
system.cpu.MemDepUnit__1.insertedStores             0                       # Number of stores inserted to the mem dependence unit. (Count)
system.cpu.MemDepUnit__1.conflictingLoads            0                       # Number of conflicting loads. (Count)
system.cpu.MemDepUnit__1.conflictingStores            0                       # Number of conflicting stores. (Count)
system.cpu.MemDepUnit__2.insertedLoads              0                       # Number of loads inserted to the mem dependence unit. (Count)
system.cpu.MemDepUnit__2.insertedStores             0                       # Number of stores inserted to the mem dependence unit. (Count)
system.cpu.MemDepUnit__2.conflictingLoads            0                       # Number of conflicting loads. (Count)
system.cpu.MemDepUnit__2.conflictingStores            0                       # Number of conflicting stores. (Count)
system.cpu.MemDepUnit__3.insertedLoads              0                       # Number of loads inserted to the mem dependence unit. (Count)
system.cpu.MemDepUnit__3.insertedStores             0                       # Number of stores inserted to the mem dependence unit. (Count)
system.cpu.MemDepUnit__3.conflictingLoads            0                       # Number of conflicting loads. (Count)
system.cpu.MemDepUnit__3.conflictingStores            0                       # Number of conflicting stores. (Count)
system.cpu.branchPred.lookups_0::NoBranch         1861      0.01%      0.01% # Number of BP lookups (Count)
system.cpu.branchPred.lookups_0::Return       2218774      8.19%      8.20% # Number of BP lookups (Count)
system.cpu.branchPred.lookups_0::CallDirect      2094253      7.73%     15.93% # Number of BP lookups (Count)
system.cpu.branchPred.lookups_0::CallIndirect         1353      0.00%     15.93% # Number of BP lookups (Count)
system.cpu.branchPred.lookups_0::DirectCond     21963004     81.08%     97.01% # Number of BP lookups (Count)
system.cpu.branchPred.lookups_0::DirectUncond       410469      1.52%     98.53% # Number of BP lookups (Count)
system.cpu.branchPred.lookups_0::IndirectCond            0      0.00%     98.53% # Number of BP lookups (Count)
system.cpu.branchPred.lookups_0::IndirectUncond       399394      1.47%    100.00% # Number of BP lookups (Count)
system.cpu.branchPred.lookups_0::total       27089108                       # Number of BP lookups (Count)
system.cpu.branchPred.squashes_0::NoBranch         1580      0.03%      0.03% # Number of branches that got squashed (completely removed) as an earlier branch was mispredicted. (Count)
system.cpu.branchPred.squashes_0::Return       781267     16.27%     16.30% # Number of branches that got squashed (completely removed) as an earlier branch was mispredicted. (Count)
system.cpu.branchPred.squashes_0::CallDirect       657344     13.69%     30.00% # Number of branches that got squashed (completely removed) as an earlier branch was mispredicted. (Count)
system.cpu.branchPred.squashes_0::CallIndirect          750      0.02%     30.01% # Number of branches that got squashed (completely removed) as an earlier branch was mispredicted. (Count)
system.cpu.branchPred.squashes_0::DirectCond      3089074     64.34%     94.35% # Number of branches that got squashed (completely removed) as an earlier branch was mispredicted. (Count)
system.cpu.branchPred.squashes_0::DirectUncond       265861      5.54%     99.88% # Number of branches that got squashed (completely removed) as an earlier branch was mispredicted. (Count)
system.cpu.branchPred.squashes_0::IndirectCond            0      0.00%     99.88% # Number of branches that got squashed (completely removed) as an earlier branch was mispredicted. (Count)
system.cpu.branchPred.squashes_0::IndirectUncond         5553      0.12%    100.00% # Number of branches that got squashed (completely removed) as an earlier branch was mispredicted. (Count)
system.cpu.branchPred.squashes_0::total       4801429                       # Number of branches that got squashed (completely removed) as an earlier branch was mispredicted. (Count)
system.cpu.branchPred.corrected_0::NoBranch          436      0.11%      0.11% # Number of branches that got corrected but not yet commited. Branches get corrected by decode or after execute. Also a branch misprediction can be detected out-of-order. Therefore, a corrected branch might not end up beeing committed in case an even earlier branch was mispredicted (Count)
system.cpu.branchPred.corrected_0::Return           14      0.00%      0.11% # Number of branches that got corrected but not yet commited. Branches get corrected by decode or after execute. Also a branch misprediction can be detected out-of-order. Therefore, a corrected branch might not end up beeing committed in case an even earlier branch was mispredicted (Count)
system.cpu.branchPred.corrected_0::CallDirect          811      0.20%      0.31% # Number of branches that got corrected but not yet commited. Branches get corrected by decode or after execute. Also a branch misprediction can be detected out-of-order. Therefore, a corrected branch might not end up beeing committed in case an even earlier branch was mispredicted (Count)
system.cpu.branchPred.corrected_0::CallIndirect          240      0.06%      0.37% # Number of branches that got corrected but not yet commited. Branches get corrected by decode or after execute. Also a branch misprediction can be detected out-of-order. Therefore, a corrected branch might not end up beeing committed in case an even earlier branch was mispredicted (Count)
system.cpu.branchPred.corrected_0::DirectCond       402236     99.21%     99.58% # Number of branches that got corrected but not yet commited. Branches get corrected by decode or after execute. Also a branch misprediction can be detected out-of-order. Therefore, a corrected branch might not end up beeing committed in case an even earlier branch was mispredicted (Count)
system.cpu.branchPred.corrected_0::DirectUncond          585      0.14%     99.72% # Number of branches that got corrected but not yet commited. Branches get corrected by decode or after execute. Also a branch misprediction can be detected out-of-order. Therefore, a corrected branch might not end up beeing committed in case an even earlier branch was mispredicted (Count)
system.cpu.branchPred.corrected_0::IndirectCond            0      0.00%     99.72% # Number of branches that got corrected but not yet commited. Branches get corrected by decode or after execute. Also a branch misprediction can be detected out-of-order. Therefore, a corrected branch might not end up beeing committed in case an even earlier branch was mispredicted (Count)
system.cpu.branchPred.corrected_0::IndirectUncond         1115      0.28%    100.00% # Number of branches that got corrected but not yet commited. Branches get corrected by decode or after execute. Also a branch misprediction can be detected out-of-order. Therefore, a corrected branch might not end up beeing committed in case an even earlier branch was mispredicted (Count)
system.cpu.branchPred.corrected_0::total       405437                       # Number of branches that got corrected but not yet commited. Branches get corrected by decode or after execute. Also a branch misprediction can be detected out-of-order. Therefore, a corrected branch might not end up beeing committed in case an even earlier branch was mispredicted (Count)
system.cpu.branchPred.earlyResteers_0::NoBranch            0                       # Number of branches that got redirected after decode. (Count)
system.cpu.branchPred.earlyResteers_0::Return            0                       # Number of branches that got redirected after decode. (Count)
system.cpu.branchPred.earlyResteers_0::CallDirect            0                       # Number of branches that got redirected after decode. (Count)
system.cpu.branchPred.earlyResteers_0::CallIndirect            0                       # Number of branches that got redirected after decode. (Count)
system.cpu.branchPred.earlyResteers_0::DirectCond            0                       # Number of branches that got redirected after decode. (Count)
system.cpu.branchPred.earlyResteers_0::DirectUncond            0                       # Number of branches that got redirected after decode. (Count)
system.cpu.branchPred.earlyResteers_0::IndirectCond            0                       # Number of branches that got redirected after decode. (Count)
system.cpu.branchPred.earlyResteers_0::IndirectUncond            0                       # Number of branches that got redirected after decode. (Count)
system.cpu.branchPred.earlyResteers_0::total            0                       # Number of branches that got redirected after decode. (Count)
system.cpu.branchPred.committed_0::NoBranch          281      0.00%      0.00% # Number of branches finally committed  (Count)
system.cpu.branchPred.committed_0::Return      1437506      6.45%      6.45% # Number of branches finally committed  (Count)
system.cpu.branchPred.committed_0::CallDirect      1436908      6.45%     12.90% # Number of branches finally committed  (Count)
system.cpu.branchPred.committed_0::CallIndirect          603      0.00%     12.90% # Number of branches finally committed  (Count)
system.cpu.branchPred.committed_0::DirectCond     18873923     84.68%     97.58% # Number of branches finally committed  (Count)
system.cpu.branchPred.committed_0::DirectUncond       144608      0.65%     98.23% # Number of branches finally committed  (Count)
system.cpu.branchPred.committed_0::IndirectCond            0      0.00%     98.23% # Number of branches finally committed  (Count)
system.cpu.branchPred.committed_0::IndirectUncond       393841      1.77%    100.00% # Number of branches finally committed  (Count)
system.cpu.branchPred.committed_0::total     22287670                       # Number of branches finally committed  (Count)
system.cpu.branchPred.mispredicted_0::NoBranch          281      0.20%      0.20% # Number of committed branches that were mispredicted. (Count)
system.cpu.branchPred.mispredicted_0::Return            0      0.00%      0.20% # Number of committed branches that were mispredicted. (Count)
system.cpu.branchPred.mispredicted_0::CallDirect          492      0.34%      0.54% # Number of committed branches that were mispredicted. (Count)
system.cpu.branchPred.mispredicted_0::CallIndirect          214      0.15%      0.69% # Number of committed branches that were mispredicted. (Count)
system.cpu.branchPred.mispredicted_0::DirectCond       141283     98.33%     99.02% # Number of committed branches that were mispredicted. (Count)
system.cpu.branchPred.mispredicted_0::DirectUncond          343      0.24%     99.26% # Number of committed branches that were mispredicted. (Count)
system.cpu.branchPred.mispredicted_0::IndirectCond            0      0.00%     99.26% # Number of committed branches that were mispredicted. (Count)
system.cpu.branchPred.mispredicted_0::IndirectUncond         1066      0.74%    100.00% # Number of committed branches that were mispredicted. (Count)
system.cpu.branchPred.mispredicted_0::total       143679                       # Number of committed branches that were mispredicted. (Count)
system.cpu.branchPred.targetProvider_0::NoTarget      5145320     18.99%     18.99% # The component providing the target for taken branches (Count)
system.cpu.branchPred.targetProvider_0::BTB     19330756     71.36%     90.35% # The component providing the target for taken branches (Count)
system.cpu.branchPred.targetProvider_0::RAS      2218774      8.19%     98.54% # The component providing the target for taken branches (Count)
system.cpu.branchPred.targetProvider_0::Indirect       394258      1.46%    100.00% # The component providing the target for taken branches (Count)
system.cpu.branchPred.targetProvider_0::total     27089108                       # The component providing the target for taken branches (Count)
system.cpu.branchPred.targetWrong_0::NoBranch         8091      2.01%      2.01% # Number of branches where the target was incorrect or not available at prediction time. (Count)
system.cpu.branchPred.targetWrong_0::Return       395093     97.96%     99.96% # Number of branches where the target was incorrect or not available at prediction time. (Count)
system.cpu.branchPred.targetWrong_0::CallDirect           14      0.00%     99.97% # Number of branches where the target was incorrect or not available at prediction time. (Count)
system.cpu.branchPred.targetWrong_0::CallIndirect          135      0.03%    100.00% # Number of branches where the target was incorrect or not available at prediction time. (Count)
system.cpu.branchPred.targetWrong_0::DirectCond            0      0.00%    100.00% # Number of branches where the target was incorrect or not available at prediction time. (Count)
system.cpu.branchPred.targetWrong_0::DirectUncond            0      0.00%    100.00% # Number of branches where the target was incorrect or not available at prediction time. (Count)
system.cpu.branchPred.targetWrong_0::IndirectCond            0      0.00%    100.00% # Number of branches where the target was incorrect or not available at prediction time. (Count)
system.cpu.branchPred.targetWrong_0::IndirectUncond            0      0.00%    100.00% # Number of branches where the target was incorrect or not available at prediction time. (Count)
system.cpu.branchPred.targetWrong_0::total       403333                       # Number of branches where the target was incorrect or not available at prediction time. (Count)
system.cpu.branchPred.condPredicted          21964865                       # Number of conditional branches predicted (Count)
system.cpu.branchPred.condPredictedTaken     17089464                       # Number of conditional branches predicted as taken (Count)
system.cpu.branchPred.condIncorrect            405437                       # Number of conditional branches incorrect (Count)
system.cpu.branchPred.predTakenBTBMiss           1704                       # Number of branches predicted taken but missed in BTB (Count)
system.cpu.branchPred.NotTakenMispredicted         9713                       # Number branches predicted 'not taken' but turned out to be taken (Count)
system.cpu.branchPred.TakenMispredicted        395724                       # Number branches predicted taken but are actually not taken (Count)
system.cpu.branchPred.BTBLookups             27089108                       # Number of BTB lookups (Count)
system.cpu.branchPred.BTBUpdates                 7908                       # Number of BTB updates (Count)
system.cpu.branchPred.BTBHits                20193451                       # Number of BTB hits (Count)
system.cpu.branchPred.BTBHitRatio            0.745445                       # BTB Hit Ratio (Ratio)
system.cpu.branchPred.BTBMispredicted            2545                       # Number BTB mispredictions. No target found or target wrong (Count)
system.cpu.branchPred.indirectLookups          400747                       # Number of indirect predictor lookups. (Count)
system.cpu.branchPred.indirectHits             394258                       # Number of indirect target hits. (Count)
system.cpu.branchPred.indirectMisses             6489                       # Number of indirect misses. (Count)
system.cpu.branchPred.indirectMispredicted            0                       # Number of mispredicted indirect branches. (Count)
system.cpu.branchPred.btb.lookups::NoBranch         1861      0.01%      0.01% # Number of BTB lookups (Count)
system.cpu.branchPred.btb.lookups::Return      2218774      8.19%      8.20% # Number of BTB lookups (Count)
system.cpu.branchPred.btb.lookups::CallDirect      2094253      7.73%     15.93% # Number of BTB lookups (Count)
system.cpu.branchPred.btb.lookups::CallIndirect         1353      0.00%     15.93% # Number of BTB lookups (Count)
system.cpu.branchPred.btb.lookups::DirectCond     21963004     81.08%     97.01% # Number of BTB lookups (Count)
system.cpu.branchPred.btb.lookups::DirectUncond       410469      1.52%     98.53% # Number of BTB lookups (Count)
system.cpu.branchPred.btb.lookups::IndirectCond            0      0.00%     98.53% # Number of BTB lookups (Count)
system.cpu.branchPred.btb.lookups::IndirectUncond       399394      1.47%    100.00% # Number of BTB lookups (Count)
system.cpu.branchPred.btb.lookups::total     27089108                       # Number of BTB lookups (Count)
system.cpu.branchPred.btb.misses::NoBranch          369      0.01%      0.01% # Number of BTB misses (Count)
system.cpu.branchPred.btb.misses::Return      2218774     32.18%     32.18% # Number of BTB misses (Count)
system.cpu.branchPred.btb.misses::CallDirect         1267      0.02%     32.20% # Number of BTB misses (Count)
system.cpu.branchPred.btb.misses::CallIndirect         1353      0.02%     32.22% # Number of BTB misses (Count)
system.cpu.branchPred.btb.misses::DirectCond      4273601     61.98%     94.19% # Number of BTB misses (Count)
system.cpu.branchPred.btb.misses::DirectUncond          899      0.01%     94.21% # Number of BTB misses (Count)
system.cpu.branchPred.btb.misses::IndirectCond            0      0.00%     94.21% # Number of BTB misses (Count)
system.cpu.branchPred.btb.misses::IndirectUncond       399394      5.79%    100.00% # Number of BTB misses (Count)
system.cpu.branchPred.btb.misses::total       6895657                       # Number of BTB misses (Count)
system.cpu.branchPred.btb.updates::NoBranch            0      0.00%      0.00% # Number of BTB updates (Count)
system.cpu.branchPred.btb.updates::Return            0      0.00%      0.00% # Number of BTB updates (Count)
system.cpu.branchPred.btb.updates::CallDirect          811     10.26%     10.26% # Number of BTB updates (Count)
system.cpu.branchPred.btb.updates::CallIndirect            0      0.00%     10.26% # Number of BTB updates (Count)
system.cpu.branchPred.btb.updates::DirectCond         6512     82.35%     92.60% # Number of BTB updates (Count)
system.cpu.branchPred.btb.updates::DirectUncond          585      7.40%    100.00% # Number of BTB updates (Count)
system.cpu.branchPred.btb.updates::IndirectCond            0      0.00%    100.00% # Number of BTB updates (Count)
system.cpu.branchPred.btb.updates::IndirectUncond            0      0.00%    100.00% # Number of BTB updates (Count)
system.cpu.branchPred.btb.updates::total         7908                       # Number of BTB updates (Count)
system.cpu.branchPred.btb.mispredict::NoBranch            0      0.00%      0.00% # Number of BTB mispredictions. No target found or target wrong. (Count)
system.cpu.branchPred.btb.mispredict::Return            0      0.00%      0.00% # Number of BTB mispredictions. No target found or target wrong. (Count)
system.cpu.branchPred.btb.mispredict::CallDirect          811     10.26%     10.26% # Number of BTB mispredictions. No target found or target wrong. (Count)
system.cpu.branchPred.btb.mispredict::CallIndirect            0      0.00%     10.26% # Number of BTB mispredictions. No target found or target wrong. (Count)
system.cpu.branchPred.btb.mispredict::DirectCond         6512     82.35%     92.60% # Number of BTB mispredictions. No target found or target wrong. (Count)
system.cpu.branchPred.btb.mispredict::DirectUncond          585      7.40%    100.00% # Number of BTB mispredictions. No target found or target wrong. (Count)
system.cpu.branchPred.btb.mispredict::IndirectCond            0      0.00%    100.00% # Number of BTB mispredictions. No target found or target wrong. (Count)
system.cpu.branchPred.btb.mispredict::IndirectUncond            0      0.00%    100.00% # Number of BTB mispredictions. No target found or target wrong. (Count)
system.cpu.branchPred.btb.mispredict::total         7908                       # Number of BTB mispredictions. No target found or target wrong. (Count)
system.cpu.branchPred.btb.power_state.pwrStateResidencyTicks::UNDEFINED 1020900370186                       # Cumulative time (in ticks) in various power states (Tick)
system.cpu.branchPred.indirectBranchPred.lookups       400747                       # Number of lookups (Count)
system.cpu.branchPred.indirectBranchPred.hits       394258                       # Number of hits of a tag (Count)
system.cpu.branchPred.indirectBranchPred.misses         6489                       # Number of misses (Count)
system.cpu.branchPred.indirectBranchPred.targetRecords         1355                       # Number of targets that where recorded/installed in the cache (Count)
system.cpu.branchPred.indirectBranchPred.indirectRecords       402102                       # Number of indirect branches/calls recorded in the indirect hist (Count)
system.cpu.branchPred.indirectBranchPred.speculativeOverflows            1                       # Number of times more than the allowed capacity for speculative branches/calls where in flight and destroy the path history (Count)
system.cpu.branchPred.ras.pushes              2876873                       # Number of times a PC was pushed onto the RAS (Count)
system.cpu.branchPred.ras.pops                2876868                       # Number of times a PC was poped from the RAS (Count)
system.cpu.branchPred.ras.squashes            1439361                       # Number of times the stack operation was squashed due to wrong speculation. (Count)
system.cpu.branchPred.ras.used                1437506                       # Number of times the RAS is the provider (Count)
system.cpu.branchPred.ras.correct             1437506                       # Number of times the RAS is the provider and the prediction is correct (Count)
system.cpu.branchPred.ras.incorrect                 0                       # Number of times the RAS is the provider and the prediction is wrong (Count)
system.cpu.commit.commitSquashedInsts        23430437                       # The number of squashed insts skipped by commit (Count)
system.cpu.commit.commitNonSpecStalls            2219                       # The number of times commit has been forced to stall to communicate backwards (Count)
system.cpu.commit.branchMispredicts            404088                       # The number of times a branch was mispredicted (Count)
system.cpu.commit.numCommittedDist::samples     71646833                       # Number of insts commited each cycle (Count)
system.cpu.commit.numCommittedDist::mean     3.427189                       # Number of insts commited each cycle (Count)
system.cpu.commit.numCommittedDist::stdev     3.309426                       # Number of insts commited each cycle (Count)
system.cpu.commit.numCommittedDist::underflows            0      0.00%      0.00% # Number of insts commited each cycle (Count)
system.cpu.commit.numCommittedDist::0         4624620      6.45%      6.45% # Number of insts commited each cycle (Count)
system.cpu.commit.numCommittedDist::1        38348923     53.52%     59.98% # Number of insts commited each cycle (Count)
system.cpu.commit.numCommittedDist::2          986345      1.38%     61.36% # Number of insts commited each cycle (Count)
system.cpu.commit.numCommittedDist::3         2227097      3.11%     64.46% # Number of insts commited each cycle (Count)
system.cpu.commit.numCommittedDist::4          684141      0.95%     65.42% # Number of insts commited each cycle (Count)
system.cpu.commit.numCommittedDist::5          411580      0.57%     65.99% # Number of insts commited each cycle (Count)
system.cpu.commit.numCommittedDist::6          401958      0.56%     66.56% # Number of insts commited each cycle (Count)
system.cpu.commit.numCommittedDist::7          359256      0.50%     67.06% # Number of insts commited each cycle (Count)
system.cpu.commit.numCommittedDist::8        23602913     32.94%    100.00% # Number of insts commited each cycle (Count)
system.cpu.commit.numCommittedDist::overflows            0      0.00%    100.00% # Number of insts commited each cycle (Count)
system.cpu.commit.numCommittedDist::min_value            0                       # Number of insts commited each cycle (Count)
system.cpu.commit.numCommittedDist::max_value            8                       # Number of insts commited each cycle (Count)
system.cpu.commit.numCommittedDist::total     71646833                       # Number of insts commited each cycle (Count)
system.cpu.commit.amos                              0                       # Number of atomic instructions committed (Count)
system.cpu.commit.membars                        1010                       # Number of memory barriers committed (Count)
system.cpu.commit.functionCalls               1437511                       # Number of function calls committed. (Count)
system.cpu.commit.committedInstType_0::No_OpClass      1700101      0.69%      0.69% # Class of committed instruction (Count)
system.cpu.commit.committedInstType_0::IntAlu    173139473     70.51%     71.20% # Class of committed instruction (Count)
system.cpu.commit.committedInstType_0::IntMult       259178      0.11%     71.31% # Class of committed instruction (Count)
system.cpu.commit.committedInstType_0::IntDiv        38794      0.02%     71.33% # Class of committed instruction (Count)
system.cpu.commit.committedInstType_0::FloatAdd       525253      0.21%     71.54% # Class of committed instruction (Count)
system.cpu.commit.committedInstType_0::FloatCmp            0      0.00%     71.54% # Class of committed instruction (Count)
system.cpu.commit.committedInstType_0::FloatCvt         1232      0.00%     71.54% # Class of committed instruction (Count)
system.cpu.commit.committedInstType_0::FloatMult            0      0.00%     71.54% # Class of committed instruction (Count)
system.cpu.commit.committedInstType_0::FloatMultAcc            0      0.00%     71.54% # Class of committed instruction (Count)
system.cpu.commit.committedInstType_0::FloatDiv            0      0.00%     71.54% # Class of committed instruction (Count)
system.cpu.commit.committedInstType_0::FloatMisc            0      0.00%     71.54% # Class of committed instruction (Count)
system.cpu.commit.committedInstType_0::FloatSqrt            0      0.00%     71.54% # Class of committed instruction (Count)
system.cpu.commit.committedInstType_0::SimdAdd         6510      0.00%     71.54% # Class of committed instruction (Count)
system.cpu.commit.committedInstType_0::SimdAddAcc            0      0.00%     71.54% # Class of committed instruction (Count)
system.cpu.commit.committedInstType_0::SimdAlu       272374      0.11%     71.65% # Class of committed instruction (Count)
system.cpu.commit.committedInstType_0::SimdCmp            6      0.00%     71.65% # Class of committed instruction (Count)
system.cpu.commit.committedInstType_0::SimdCvt        13504      0.01%     71.66% # Class of committed instruction (Count)
system.cpu.commit.committedInstType_0::SimdMisc      1179238      0.48%     72.14% # Class of committed instruction (Count)
system.cpu.commit.committedInstType_0::SimdMult            0      0.00%     72.14% # Class of committed instruction (Count)
system.cpu.commit.committedInstType_0::SimdMultAcc            0      0.00%     72.14% # Class of committed instruction (Count)
system.cpu.commit.committedInstType_0::SimdMatMultAcc            0      0.00%     72.14% # Class of committed instruction (Count)
system.cpu.commit.committedInstType_0::SimdShift         1931      0.00%     72.14% # Class of committed instruction (Count)
system.cpu.commit.committedInstType_0::SimdShiftAcc            0      0.00%     72.14% # Class of committed instruction (Count)
system.cpu.commit.committedInstType_0::SimdDiv            0      0.00%     72.14% # Class of committed instruction (Count)
system.cpu.commit.committedInstType_0::SimdSqrt            0      0.00%     72.14% # Class of committed instruction (Count)
system.cpu.commit.committedInstType_0::SimdFloatAdd       129539      0.05%     72.19% # Class of committed instruction (Count)
system.cpu.commit.committedInstType_0::SimdFloatAlu            0      0.00%     72.19% # Class of committed instruction (Count)
system.cpu.commit.committedInstType_0::SimdFloatCmp            0      0.00%     72.19% # Class of committed instruction (Count)
system.cpu.commit.committedInstType_0::SimdFloatCvt       259078      0.11%     72.30% # Class of committed instruction (Count)
system.cpu.commit.committedInstType_0::SimdFloatDiv       129539      0.05%     72.35% # Class of committed instruction (Count)
system.cpu.commit.committedInstType_0::SimdFloatMisc            0      0.00%     72.35% # Class of committed instruction (Count)
system.cpu.commit.committedInstType_0::SimdFloatMult            0      0.00%     72.35% # Class of committed instruction (Count)
system.cpu.commit.committedInstType_0::SimdFloatMultAcc            0      0.00%     72.35% # Class of committed instruction (Count)
system.cpu.commit.committedInstType_0::SimdFloatMatMultAcc            0      0.00%     72.35% # Class of committed instruction (Count)
system.cpu.commit.committedInstType_0::SimdFloatSqrt            0      0.00%     72.35% # Class of committed instruction (Count)
system.cpu.commit.committedInstType_0::SimdReduceAdd            0      0.00%     72.35% # Class of committed instruction (Count)
system.cpu.commit.committedInstType_0::SimdReduceAlu            0      0.00%     72.35% # Class of committed instruction (Count)
system.cpu.commit.committedInstType_0::SimdReduceCmp            0      0.00%     72.35% # Class of committed instruction (Count)
system.cpu.commit.committedInstType_0::SimdFloatReduceAdd            0      0.00%     72.35% # Class of committed instruction (Count)
system.cpu.commit.committedInstType_0::SimdFloatReduceCmp            0      0.00%     72.35% # Class of committed instruction (Count)
system.cpu.commit.committedInstType_0::SimdAes            0      0.00%     72.35% # Class of committed instruction (Count)
system.cpu.commit.committedInstType_0::SimdAesMix            0      0.00%     72.35% # Class of committed instruction (Count)
system.cpu.commit.committedInstType_0::SimdSha1Hash            0      0.00%     72.35% # Class of committed instruction (Count)
system.cpu.commit.committedInstType_0::SimdSha1Hash2            0      0.00%     72.35% # Class of committed instruction (Count)
system.cpu.commit.committedInstType_0::SimdSha256Hash            0      0.00%     72.35% # Class of committed instruction (Count)
system.cpu.commit.committedInstType_0::SimdSha256Hash2            0      0.00%     72.35% # Class of committed instruction (Count)
system.cpu.commit.committedInstType_0::SimdShaSigma2            0      0.00%     72.35% # Class of committed instruction (Count)
system.cpu.commit.committedInstType_0::SimdShaSigma3            0      0.00%     72.35% # Class of committed instruction (Count)
system.cpu.commit.committedInstType_0::SimdPredAlu            0      0.00%     72.35% # Class of committed instruction (Count)
system.cpu.commit.committedInstType_0::Matrix            0      0.00%     72.35% # Class of committed instruction (Count)
system.cpu.commit.committedInstType_0::MatrixMov            0      0.00%     72.35% # Class of committed instruction (Count)
system.cpu.commit.committedInstType_0::MatrixOP            0      0.00%     72.35% # Class of committed instruction (Count)
system.cpu.commit.committedInstType_0::MemRead     44442972     18.10%     90.45% # Class of committed instruction (Count)
system.cpu.commit.committedInstType_0::MemWrite     22768511      9.27%     99.72% # Class of committed instruction (Count)
system.cpu.commit.committedInstType_0::FloatMemRead       535533      0.22%     99.94% # Class of committed instruction (Count)
system.cpu.commit.committedInstType_0::FloatMemWrite       144446      0.06%    100.00% # Class of committed instruction (Count)
system.cpu.commit.committedInstType_0::IprAccess            0      0.00%    100.00% # Class of committed instruction (Count)
system.cpu.commit.committedInstType_0::InstPrefetch            0      0.00%    100.00% # Class of committed instruction (Count)
system.cpu.commit.committedInstType_0::SimdUnitStrideLoad            0      0.00%    100.00% # Class of committed instruction (Count)
system.cpu.commit.committedInstType_0::SimdUnitStrideStore            0      0.00%    100.00% # Class of committed instruction (Count)
system.cpu.commit.committedInstType_0::SimdUnitStrideMaskLoad            0      0.00%    100.00% # Class of committed instruction (Count)
system.cpu.commit.committedInstType_0::SimdUnitStrideMaskStore            0      0.00%    100.00% # Class of committed instruction (Count)
system.cpu.commit.committedInstType_0::SimdStridedLoad            0      0.00%    100.00% # Class of committed instruction (Count)
system.cpu.commit.committedInstType_0::SimdStridedStore            0      0.00%    100.00% # Class of committed instruction (Count)
system.cpu.commit.committedInstType_0::SimdIndexedLoad            0      0.00%    100.00% # Class of committed instruction (Count)
system.cpu.commit.committedInstType_0::SimdIndexedStore            0      0.00%    100.00% # Class of committed instruction (Count)
system.cpu.commit.committedInstType_0::SimdWholeRegisterLoad            0      0.00%    100.00% # Class of committed instruction (Count)
system.cpu.commit.committedInstType_0::SimdWholeRegisterStore            0      0.00%    100.00% # Class of committed instruction (Count)
system.cpu.commit.committedInstType_0::SimdUnitStrideFaultOnlyFirstLoad            0      0.00%    100.00% # Class of committed instruction (Count)
system.cpu.commit.committedInstType_0::SimdUnitStrideSegmentedLoad            0      0.00%    100.00% # Class of committed instruction (Count)
system.cpu.commit.committedInstType_0::SimdUnitStrideSegmentedStore            0      0.00%    100.00% # Class of committed instruction (Count)
system.cpu.commit.committedInstType_0::SimdExt            0      0.00%    100.00% # Class of committed instruction (Count)
system.cpu.commit.committedInstType_0::SimdFloatExt            0      0.00%    100.00% # Class of committed instruction (Count)
system.cpu.commit.committedInstType_0::SimdConfig            0      0.00%    100.00% # Class of committed instruction (Count)
system.cpu.commit.committedInstType_0::total    245547212                       # Class of committed instruction (Count)
system.cpu.commit.commitEligibleSamples      23602913                       # number cycles where commit BW limit reached (Cycle)
system.cpu.commitStats0.numInsts            120452794                       # Number of instructions committed (thread level) (Count)
system.cpu.commitStats0.numOps              245547212                       # Number of ops (including micro ops) committed (thread level) (Count)
system.cpu.commitStats0.numInstsNotNOP      120452794                       # Number of instructions committed excluding NOPs or prefetches (Count)
system.cpu.commitStats0.numOpsNotNOP        245547212                       # Number of Ops (including micro ops) Simulated (Count)
system.cpu.commitStats0.cpi                  0.635680                       # CPI: cycles per instruction (thread level) ((Cycle/Count))
system.cpu.commitStats0.ipc                  1.573118                       # IPC: instructions per cycle (thread level) ((Count/Cycle))
system.cpu.commitStats0.numMemRefs           67891462                       # Number of memory references committed (Count)
system.cpu.commitStats0.numFpInsts            3331552                       # Number of float instructions (Count)
system.cpu.commitStats0.numIntInsts         241585344                       # Number of integer instructions (Count)
system.cpu.commitStats0.numLoadInsts         44978505                       # Number of load instructions (Count)
system.cpu.commitStats0.numStoreInsts        22912957                       # Number of store instructions (Count)
system.cpu.commitStats0.numVecInsts                 0                       # Number of vector instructions (Count)
system.cpu.commitStats0.committedInstType::No_OpClass      1700101      0.69%      0.69% # Class of committed instruction. (Count)
system.cpu.commitStats0.committedInstType::IntAlu    173139473     70.51%     71.20% # Class of committed instruction. (Count)
system.cpu.commitStats0.committedInstType::IntMult       259178      0.11%     71.31% # Class of committed instruction. (Count)
system.cpu.commitStats0.committedInstType::IntDiv        38794      0.02%     71.33% # Class of committed instruction. (Count)
system.cpu.commitStats0.committedInstType::FloatAdd       525253      0.21%     71.54% # Class of committed instruction. (Count)
system.cpu.commitStats0.committedInstType::FloatCmp            0      0.00%     71.54% # Class of committed instruction. (Count)
system.cpu.commitStats0.committedInstType::FloatCvt         1232      0.00%     71.54% # Class of committed instruction. (Count)
system.cpu.commitStats0.committedInstType::FloatMult            0      0.00%     71.54% # Class of committed instruction. (Count)
system.cpu.commitStats0.committedInstType::FloatMultAcc            0      0.00%     71.54% # Class of committed instruction. (Count)
system.cpu.commitStats0.committedInstType::FloatDiv            0      0.00%     71.54% # Class of committed instruction. (Count)
system.cpu.commitStats0.committedInstType::FloatMisc            0      0.00%     71.54% # Class of committed instruction. (Count)
system.cpu.commitStats0.committedInstType::FloatSqrt            0      0.00%     71.54% # Class of committed instruction. (Count)
system.cpu.commitStats0.committedInstType::SimdAdd         6510      0.00%     71.54% # Class of committed instruction. (Count)
system.cpu.commitStats0.committedInstType::SimdAddAcc            0      0.00%     71.54% # Class of committed instruction. (Count)
system.cpu.commitStats0.committedInstType::SimdAlu       272374      0.11%     71.65% # Class of committed instruction. (Count)
system.cpu.commitStats0.committedInstType::SimdCmp            6      0.00%     71.65% # Class of committed instruction. (Count)
system.cpu.commitStats0.committedInstType::SimdCvt        13504      0.01%     71.66% # Class of committed instruction. (Count)
system.cpu.commitStats0.committedInstType::SimdMisc      1179238      0.48%     72.14% # Class of committed instruction. (Count)
system.cpu.commitStats0.committedInstType::SimdMult            0      0.00%     72.14% # Class of committed instruction. (Count)
system.cpu.commitStats0.committedInstType::SimdMultAcc            0      0.00%     72.14% # Class of committed instruction. (Count)
system.cpu.commitStats0.committedInstType::SimdMatMultAcc            0      0.00%     72.14% # Class of committed instruction. (Count)
system.cpu.commitStats0.committedInstType::SimdShift         1931      0.00%     72.14% # Class of committed instruction. (Count)
system.cpu.commitStats0.committedInstType::SimdShiftAcc            0      0.00%     72.14% # Class of committed instruction. (Count)
system.cpu.commitStats0.committedInstType::SimdDiv            0      0.00%     72.14% # Class of committed instruction. (Count)
system.cpu.commitStats0.committedInstType::SimdSqrt            0      0.00%     72.14% # Class of committed instruction. (Count)
system.cpu.commitStats0.committedInstType::SimdFloatAdd       129539      0.05%     72.19% # Class of committed instruction. (Count)
system.cpu.commitStats0.committedInstType::SimdFloatAlu            0      0.00%     72.19% # Class of committed instruction. (Count)
system.cpu.commitStats0.committedInstType::SimdFloatCmp            0      0.00%     72.19% # Class of committed instruction. (Count)
system.cpu.commitStats0.committedInstType::SimdFloatCvt       259078      0.11%     72.30% # Class of committed instruction. (Count)
system.cpu.commitStats0.committedInstType::SimdFloatDiv       129539      0.05%     72.35% # Class of committed instruction. (Count)
system.cpu.commitStats0.committedInstType::SimdFloatMisc            0      0.00%     72.35% # Class of committed instruction. (Count)
system.cpu.commitStats0.committedInstType::SimdFloatMult            0      0.00%     72.35% # Class of committed instruction. (Count)
system.cpu.commitStats0.committedInstType::SimdFloatMultAcc            0      0.00%     72.35% # Class of committed instruction. (Count)
system.cpu.commitStats0.committedInstType::SimdFloatMatMultAcc            0      0.00%     72.35% # Class of committed instruction. (Count)
system.cpu.commitStats0.committedInstType::SimdFloatSqrt            0      0.00%     72.35% # Class of committed instruction. (Count)
system.cpu.commitStats0.committedInstType::SimdReduceAdd            0      0.00%     72.35% # Class of committed instruction. (Count)
system.cpu.commitStats0.committedInstType::SimdReduceAlu            0      0.00%     72.35% # Class of committed instruction. (Count)
system.cpu.commitStats0.committedInstType::SimdReduceCmp            0      0.00%     72.35% # Class of committed instruction. (Count)
system.cpu.commitStats0.committedInstType::SimdFloatReduceAdd            0      0.00%     72.35% # Class of committed instruction. (Count)
system.cpu.commitStats0.committedInstType::SimdFloatReduceCmp            0      0.00%     72.35% # Class of committed instruction. (Count)
system.cpu.commitStats0.committedInstType::SimdAes            0      0.00%     72.35% # Class of committed instruction. (Count)
system.cpu.commitStats0.committedInstType::SimdAesMix            0      0.00%     72.35% # Class of committed instruction. (Count)
system.cpu.commitStats0.committedInstType::SimdSha1Hash            0      0.00%     72.35% # Class of committed instruction. (Count)
system.cpu.commitStats0.committedInstType::SimdSha1Hash2            0      0.00%     72.35% # Class of committed instruction. (Count)
system.cpu.commitStats0.committedInstType::SimdSha256Hash            0      0.00%     72.35% # Class of committed instruction. (Count)
system.cpu.commitStats0.committedInstType::SimdSha256Hash2            0      0.00%     72.35% # Class of committed instruction. (Count)
system.cpu.commitStats0.committedInstType::SimdShaSigma2            0      0.00%     72.35% # Class of committed instruction. (Count)
system.cpu.commitStats0.committedInstType::SimdShaSigma3            0      0.00%     72.35% # Class of committed instruction. (Count)
system.cpu.commitStats0.committedInstType::SimdPredAlu            0      0.00%     72.35% # Class of committed instruction. (Count)
system.cpu.commitStats0.committedInstType::Matrix            0      0.00%     72.35% # Class of committed instruction. (Count)
system.cpu.commitStats0.committedInstType::MatrixMov            0      0.00%     72.35% # Class of committed instruction. (Count)
system.cpu.commitStats0.committedInstType::MatrixOP            0      0.00%     72.35% # Class of committed instruction. (Count)
system.cpu.commitStats0.committedInstType::MemRead     44442972     18.10%     90.45% # Class of committed instruction. (Count)
system.cpu.commitStats0.committedInstType::MemWrite     22768511      9.27%     99.72% # Class of committed instruction. (Count)
system.cpu.commitStats0.committedInstType::FloatMemRead       535533      0.22%     99.94% # Class of committed instruction. (Count)
system.cpu.commitStats0.committedInstType::FloatMemWrite       144446      0.06%    100.00% # Class of committed instruction. (Count)
system.cpu.commitStats0.committedInstType::IprAccess            0      0.00%    100.00% # Class of committed instruction. (Count)
system.cpu.commitStats0.committedInstType::InstPrefetch            0      0.00%    100.00% # Class of committed instruction. (Count)
system.cpu.commitStats0.committedInstType::SimdUnitStrideLoad            0      0.00%    100.00% # Class of committed instruction. (Count)
system.cpu.commitStats0.committedInstType::SimdUnitStrideStore            0      0.00%    100.00% # Class of committed instruction. (Count)
system.cpu.commitStats0.committedInstType::SimdUnitStrideMaskLoad            0      0.00%    100.00% # Class of committed instruction. (Count)
system.cpu.commitStats0.committedInstType::SimdUnitStrideMaskStore            0      0.00%    100.00% # Class of committed instruction. (Count)
system.cpu.commitStats0.committedInstType::SimdStridedLoad            0      0.00%    100.00% # Class of committed instruction. (Count)
system.cpu.commitStats0.committedInstType::SimdStridedStore            0      0.00%    100.00% # Class of committed instruction. (Count)
system.cpu.commitStats0.committedInstType::SimdIndexedLoad            0      0.00%    100.00% # Class of committed instruction. (Count)
system.cpu.commitStats0.committedInstType::SimdIndexedStore            0      0.00%    100.00% # Class of committed instruction. (Count)
system.cpu.commitStats0.committedInstType::SimdWholeRegisterLoad            0      0.00%    100.00% # Class of committed instruction. (Count)
system.cpu.commitStats0.committedInstType::SimdWholeRegisterStore            0      0.00%    100.00% # Class of committed instruction. (Count)
system.cpu.commitStats0.committedInstType::SimdUnitStrideFaultOnlyFirstLoad            0      0.00%    100.00% # Class of committed instruction. (Count)
system.cpu.commitStats0.committedInstType::SimdUnitStrideSegmentedLoad            0      0.00%    100.00% # Class of committed instruction. (Count)
system.cpu.commitStats0.committedInstType::SimdUnitStrideSegmentedStore            0      0.00%    100.00% # Class of committed instruction. (Count)
system.cpu.commitStats0.committedInstType::SimdExt            0      0.00%    100.00% # Class of committed instruction. (Count)
system.cpu.commitStats0.committedInstType::SimdFloatExt            0      0.00%    100.00% # Class of committed instruction. (Count)
system.cpu.commitStats0.committedInstType::SimdConfig            0      0.00%    100.00% # Class of committed instruction. (Count)
system.cpu.commitStats0.committedInstType::total    245547212                       # Class of committed instruction. (Count)
system.cpu.commitStats0.committedControl::IsControl     22287670                       # Class of control type instructions committed (Count)
system.cpu.commitStats0.committedControl::IsDirectControl     20455439                       # Class of control type instructions committed (Count)
system.cpu.commitStats0.committedControl::IsIndirectControl      1831950                       # Class of control type instructions committed (Count)
system.cpu.commitStats0.committedControl::IsCondControl     18873923                       # Class of control type instructions committed (Count)
system.cpu.commitStats0.committedControl::IsUncondControl      3413466                       # Class of control type instructions committed (Count)
system.cpu.commitStats0.committedControl::IsCall      1437511                       # Class of control type instructions committed (Count)
system.cpu.commitStats0.committedControl::IsReturn      1437506                       # Class of control type instructions committed (Count)
system.cpu.decode.idleCycles                  6847810                       # Number of cycles decode is idle (Cycle)
system.cpu.decode.blockedCycles              29343192                       # Number of cycles decode is blocked (Cycle)
system.cpu.decode.runCycles                  26534666                       # Number of cycles decode is running (Cycle)
system.cpu.decode.unblockCycles              13306302                       # Number of cycles decode is unblocking (Cycle)
system.cpu.decode.squashCycles                 534884                       # Number of cycles decode is squashing (Cycle)
system.cpu.decode.branchResolved             18537361                       # Number of times decode resolved a branch (Count)
system.cpu.decode.branchMispred                  1584                       # Number of times decode detected a branch misprediction (Count)
system.cpu.decode.decodedInsts              287741849                       # Number of instructions handled by decode (Count)
system.cpu.decode.squashedInsts                  8222                       # Number of squashed instructions handled by decode (Count)
system.cpu.executeStats0.numInsts           268428221                       # Number of executed instructions (Count)
system.cpu.executeStats0.numNop                     0                       # Number of nop insts executed (Count)
system.cpu.executeStats0.numBranches         24012422                       # Number of branches executed (Count)
system.cpu.executeStats0.numLoadInsts        48428356                       # Number of load instructions executed (Count)
system.cpu.executeStats0.numStoreInsts       24777293                       # Number of stores executed (Count)
system.cpu.executeStats0.instRate            3.505683                       # Inst execution rate ((Count/Cycle))
system.cpu.executeStats0.numCCRegReads      104668061                       # Number of times the CC registers were read (Count)
system.cpu.executeStats0.numCCRegWrites     112843633                       # Number of times the CC registers were written (Count)
system.cpu.executeStats0.numFpRegReads        6501980                       # Number of times the floating registers were read (Count)
system.cpu.executeStats0.numFpRegWrites       4362755                       # Number of times the floating registers were written (Count)
system.cpu.executeStats0.numIntRegReads     322187122                       # Number of times the integer registers were read (Count)
system.cpu.executeStats0.numIntRegWrites    193463722                       # Number of times the integer registers were written (Count)
system.cpu.executeStats0.numMemRefs          73205649                       # Number of memory refs (Count)
system.cpu.executeStats0.numMiscRegReads    122281047                       # Number of times the Misc registers were read (Count)
system.cpu.executeStats0.numMiscRegWrites          693                       # Number of times the Misc registers were written (Count)
system.cpu.executeStats0.numVecAluAccesses            0                       # Number of vector alu accesses (Count)
system.cpu.executeStats0.numDiscardedOps            0                       # Number of ops (including micro ops) which were discarded before commit (Count)
system.cpu.fetch.predictedBranches           21943788                       # Number of branches that fetch has predicted taken (Count)
system.cpu.fetch.cycles                      75495081                       # Number of cycles fetch has run and was not squashing or blocked (Cycle)
system.cpu.fetch.squashCycles                 1072826                       # Number of cycles fetch has spent squashing (Cycle)
system.cpu.fetch.miscStallCycles                  218                       # Number of cycles fetch has spent waiting on interrupts, or bad addresses, or out of MSHRs (Cycle)
system.cpu.fetch.pendingTrapStallCycles          1993                       # Number of stall cycles due to pending traps (Cycle)
system.cpu.fetch.cacheLines                  10626821                       # Number of cache lines fetched (Count)
[...]
system.mem_ctrl.dram.bwRead::total          319955527                       # Total read bandwidth from this memory ((Byte/Second))
system.mem_ctrl.dram.bwInstRead::cpu.inst    163559062                       # Instruction read bandwidth from this memory ((Byte/Second))
system.mem_ctrl.dram.bwInstRead::total      163559062                       # Instruction read bandwidth from this memory ((Byte/Second))
system.mem_ctrl.dram.bwWrite::writebacks     41322670                       # Write bandwidth from this memory ((Byte/Second))
system.mem_ctrl.dram.bwWrite::total          41322670                       # Write bandwidth from this memory ((Byte/Second))
system.mem_ctrl.dram.bwTotal::writebacks     41322670                       # Total bandwidth to/from this memory ((Byte/Second))
system.mem_ctrl.dram.bwTotal::cpu.inst      163559062                       # Total bandwidth to/from this memory ((Byte/Second))
system.mem_ctrl.dram.bwTotal::cpu.data      156396465                       # Total bandwidth to/from this memory ((Byte/Second))
system.mem_ctrl.dram.bwTotal::total         361278197                       # Total bandwidth to/from this memory ((Byte/Second))
system.mem_ctrl.dram.readBursts                  3829                       # Number of DRAM read bursts (Count)
system.mem_ctrl.dram.writeBursts                  465                       # Number of DRAM write bursts (Count)
system.mem_ctrl.dram.perBankRdBursts::0           303                       # Per bank write bursts (Count)
system.mem_ctrl.dram.perBankRdBursts::1           201                       # Per bank write bursts (Count)
system.mem_ctrl.dram.perBankRdBursts::2           295                       # Per bank write bursts (Count)
system.mem_ctrl.dram.perBankRdBursts::3           193                       # Per bank write bursts (Count)
system.mem_ctrl.dram.perBankRdBursts::4           469                       # Per bank write bursts (Count)
system.mem_ctrl.dram.perBankRdBursts::5           316                       # Per bank write bursts (Count)
system.mem_ctrl.dram.perBankRdBursts::6           187                       # Per bank write bursts (Count)
system.mem_ctrl.dram.perBankRdBursts::7           142                       # Per bank write bursts (Count)
system.mem_ctrl.dram.perBankRdBursts::8           222                       # Per bank write bursts (Count)
system.mem_ctrl.dram.perBankRdBursts::9           138                       # Per bank write bursts (Count)
system.mem_ctrl.dram.perBankRdBursts::10           73                       # Per bank write bursts (Count)
system.mem_ctrl.dram.perBankRdBursts::11          172                       # Per bank write bursts (Count)
system.mem_ctrl.dram.perBankRdBursts::12          357                       # Per bank write bursts (Count)
system.mem_ctrl.dram.perBankRdBursts::13          374                       # Per bank write bursts (Count)
system.mem_ctrl.dram.perBankRdBursts::14          233                       # Per bank write bursts (Count)
system.mem_ctrl.dram.perBankRdBursts::15          154                       # Per bank write bursts (Count)
system.mem_ctrl.dram.perBankWrBursts::0            58                       # Per bank write bursts (Count)
system.mem_ctrl.dram.perBankWrBursts::1            27                       # Per bank write bursts (Count)
system.mem_ctrl.dram.perBankWrBursts::2             1                       # Per bank write bursts (Count)
system.mem_ctrl.dram.perBankWrBursts::3            24                       # Per bank write bursts (Count)
system.mem_ctrl.dram.perBankWrBursts::4            11                       # Per bank write bursts (Count)
system.mem_ctrl.dram.perBankWrBursts::5             2                       # Per bank write bursts (Count)
system.mem_ctrl.dram.perBankWrBursts::6             0                       # Per bank write bursts (Count)
system.mem_ctrl.dram.perBankWrBursts::7            13                       # Per bank write bursts (Count)
system.mem_ctrl.dram.perBankWrBursts::8             6                       # Per bank write bursts (Count)
system.mem_ctrl.dram.perBankWrBursts::9             8                       # Per bank write bursts (Count)
system.mem_ctrl.dram.perBankWrBursts::10            9                       # Per bank write bursts (Count)
system.mem_ctrl.dram.perBankWrBursts::11           14                       # Per bank write bursts (Count)
system.mem_ctrl.dram.perBankWrBursts::12          243                       # Per bank write bursts (Count)
system.mem_ctrl.dram.perBankWrBursts::13           35                       # Per bank write bursts (Count)
system.mem_ctrl.dram.perBankWrBursts::14           12                       # Per bank write bursts (Count)
system.mem_ctrl.dram.perBankWrBursts::15            2                       # Per bank write bursts (Count)
system.mem_ctrl.dram.totQLat                 49766056                       # Total ticks spent queuing (Tick)
system.mem_ctrl.dram.totBusLat               19145000                       # Total ticks spent in databus transfers (Tick)
system.mem_ctrl.dram.totMemAccLat           121559806                       # Total ticks spent from burst creation until serviced by the DRAM (Tick)
system.mem_ctrl.dram.avgQLat                 12997.14                       # Average queueing delay per DRAM burst ((Tick/Count))
system.mem_ctrl.dram.avgBusLat                5000.00                       # Average bus latency per DRAM burst ((Tick/Count))
system.mem_ctrl.dram.avgMemAccLat            31747.14                       # Average memory access latency per DRAM burst ((Tick/Count))
system.mem_ctrl.dram.readRowHits                 2320                       # Number of row buffer hits during reads (Count)
system.mem_ctrl.dram.writeRowHits                 386                       # Number of row buffer hits during writes (Count)
system.mem_ctrl.dram.readRowHitRate             60.59                       # Row buffer hit rate for reads (Ratio)
system.mem_ctrl.dram.writeRowHitRate            83.01                       # Row buffer hit rate for writes (Ratio)
system.mem_ctrl.dram.bytesPerActivate::samples         1584                       # Bytes accessed per row activation (Byte)
system.mem_ctrl.dram.bytesPerActivate::mean   172.525253                       # Bytes accessed per row activation (Byte)
system.mem_ctrl.dram.bytesPerActivate::gmean   124.464099                       # Bytes accessed per row activation (Byte)
system.mem_ctrl.dram.bytesPerActivate::stdev   179.420861                       # Bytes accessed per row activation (Byte)
system.mem_ctrl.dram.bytesPerActivate::0-127          711     44.89%     44.89% # Bytes accessed per row activation (Byte)
system.mem_ctrl.dram.bytesPerActivate::128-255          537     33.90%     78.79% # Bytes accessed per row activation (Byte)
system.mem_ctrl.dram.bytesPerActivate::256-383          165     10.42%     89.20% # Bytes accessed per row activation (Byte)
system.mem_ctrl.dram.bytesPerActivate::384-511           79      4.99%     94.19% # Bytes accessed per row activation (Byte)
system.mem_ctrl.dram.bytesPerActivate::512-639           33      2.08%     96.28% # Bytes accessed per row activation (Byte)
system.mem_ctrl.dram.bytesPerActivate::640-767           16      1.01%     97.29% # Bytes accessed per row activation (Byte)
system.mem_ctrl.dram.bytesPerActivate::768-895           10      0.63%     97.92% # Bytes accessed per row activation (Byte)
system.mem_ctrl.dram.bytesPerActivate::896-1023            9      0.57%     98.48% # Bytes accessed per row activation (Byte)
system.mem_ctrl.dram.bytesPerActivate::1024-1151           24      1.52%    100.00% # Bytes accessed per row activation (Byte)
system.mem_ctrl.dram.bytesPerActivate::total         1584                       # Bytes accessed per row activation (Byte)
system.mem_ctrl.dram.dramBytesRead             245056                       # Total bytes read (Byte)
system.mem_ctrl.dram.dramBytesWritten           29760                       # Total bytes written (Byte)
system.mem_ctrl.dram.avgRdBW               301.380003                       # Average DRAM read bandwidth in MiBytes/s ((Byte/Second))
system.mem_ctrl.dram.avgWrBW                36.600079                       # Average DRAM write bandwidth in MiBytes/s ((Byte/Second))
system.mem_ctrl.dram.peakBW                  12800.00                       # Theoretical peak bandwidth in MiByte/s ((Byte/Second))
system.mem_ctrl.dram.busUtil                     2.64                       # Data bus utilization in percentage (Ratio)
system.mem_ctrl.dram.busUtilRead                 2.35                       # Data bus utilization in percentage for reads (Ratio)
system.mem_ctrl.dram.busUtilWrite                0.29                       # Data bus utilization in percentage for writes (Ratio)
system.mem_ctrl.dram.pageHitRate                63.02                       # Row buffer hit rate, read and write combined (Ratio)
system.mem_ctrl.dram.power_state.pwrStateResidencyTicks::UNDEFINED    813113005                       # Cumulative time (in ticks) in various power states (Tick)
system.mem_ctrl.dram.rank0.actEnergy          6069000                       # Energy for activate commands per rank (pJ) (Joule)
system.mem_ctrl.dram.rank0.preEnergy          3229545                       # Energy for precharge commands per rank (pJ) (Joule)
system.mem_ctrl.dram.rank0.readEnergy        15036840                       # Energy for read commands per rank (pJ) (Joule)
system.mem_ctrl.dram.rank0.writeEnergy         709920                       # Energy for write commands per rank (pJ) (Joule)
system.mem_ctrl.dram.rank0.refreshEnergy 63922560.000000                       # Energy for refresh commands per rank (pJ) (Joule)
system.mem_ctrl.dram.rank0.actBackEnergy    347136270                       # Energy for active background per rank (pJ) (Joule)
system.mem_ctrl.dram.rank0.preBackEnergy     19910400                       # Energy for precharge background per rank (pJ) (Joule)
system.mem_ctrl.dram.rank0.actPowerDownEnergy            0                       # Energy for active power-down per rank (pJ) (Joule)
system.mem_ctrl.dram.rank0.prePowerDownEnergy            0                       # Energy for precharge power-down per rank (pJ) (Joule)
system.mem_ctrl.dram.rank0.selfRefreshEnergy            0                       # Energy for self refresh per rank (pJ) (Joule)
system.mem_ctrl.dram.rank0.totalEnergy      456014535                       # Total energy per rank (pJ) (Joule)
system.mem_ctrl.dram.rank0.averagePower    560.825534                       # Core power per rank (mW) (Watt)
system.mem_ctrl.dram.rank0.totalIdleTime            0                       # Total Idle time Per DRAM Rank (Tick)
system.mem_ctrl.dram.rank0.pwrStateTime::IDLE     48712952                       # Time in different power states (Tick)
system.mem_ctrl.dram.rank0.pwrStateTime::REF     27040000                       # Time in different power states (Tick)
system.mem_ctrl.dram.rank0.pwrStateTime::SREF            0                       # Time in different power states (Tick)
system.mem_ctrl.dram.rank0.pwrStateTime::PRE_PDN            0                       # Time in different power states (Tick)
system.mem_ctrl.dram.rank0.pwrStateTime::ACT    737360053                       # Time in different power states (Tick)
system.mem_ctrl.dram.rank0.pwrStateTime::ACT_PDN            0                       # Time in different power states (Tick)
system.mem_ctrl.dram.rank1.actEnergy          5269320                       # Energy for activate commands per rank (pJ) (Joule)
system.mem_ctrl.dram.rank1.preEnergy          2781735                       # Energy for precharge commands per rank (pJ) (Joule)
system.mem_ctrl.dram.rank1.readEnergy        12302220                       # Energy for read commands per rank (pJ) (Joule)
system.mem_ctrl.dram.rank1.writeEnergy        1717380                       # Energy for write commands per rank (pJ) (Joule)
system.mem_ctrl.dram.rank1.refreshEnergy 63922560.000000                       # Energy for refresh commands per rank (pJ) (Joule)
system.mem_ctrl.dram.rank1.actBackEnergy    326493720                       # Energy for active background per rank (pJ) (Joule)
system.mem_ctrl.dram.rank1.preBackEnergy     37293600                       # Energy for precharge background per rank (pJ) (Joule)
system.mem_ctrl.dram.rank1.actPowerDownEnergy            0                       # Energy for active power-down per rank (pJ) (Joule)
system.mem_ctrl.dram.rank1.prePowerDownEnergy            0                       # Energy for precharge power-down per rank (pJ) (Joule)
system.mem_ctrl.dram.rank1.selfRefreshEnergy            0                       # Energy for self refresh per rank (pJ) (Joule)
system.mem_ctrl.dram.rank1.totalEnergy      449780535                       # Total energy per rank (pJ) (Joule)
system.mem_ctrl.dram.rank1.averagePower    553.158703                       # Core power per rank (mW) (Watt)
system.mem_ctrl.dram.rank1.totalIdleTime            0                       # Total Idle time Per DRAM Rank (Tick)
system.mem_ctrl.dram.rank1.pwrStateTime::IDLE     94191974                       # Time in different power states (Tick)
system.mem_ctrl.dram.rank1.pwrStateTime::REF     27040000                       # Time in different power states (Tick)
system.mem_ctrl.dram.rank1.pwrStateTime::SREF            0                       # Time in different power states (Tick)
system.mem_ctrl.dram.rank1.pwrStateTime::PRE_PDN            0                       # Time in different power states (Tick)
system.mem_ctrl.dram.rank1.pwrStateTime::ACT    691881031                       # Time in different power states (Tick)
system.mem_ctrl.dram.rank1.pwrStateTime::ACT_PDN            0                       # Time in different power states (Tick)
system.mem_ctrl.power_state.pwrStateResidencyTicks::UNDEFINED    813113005                       # Cumulative time (in ticks) in various power states (Tick)
system.membus.transDist::ReadResp                3860                       # Transaction distribution (Count)
system.membus.transDist::WritebackDirty           525                       # Transaction distribution (Count)
system.membus.transDist::CleanEvict              3541                       # Transaction distribution (Count)
system.membus.transDist::UpgradeReq                 1                       # Transaction distribution (Count)
system.membus.transDist::ReadExReq                207                       # Transaction distribution (Count)
system.membus.transDist::ReadExResp               207                       # Transaction distribution (Count)
system.membus.transDist::ReadSharedReq           3859                       # Transaction distribution (Count)
system.membus.pktCount_system.cpu.l1d.mem_side_port::system.mem_ctrl.port         5962                       # Packet count per connected requestor and responder (Count)
system.membus.pktCount_system.cpu.l1d.mem_side_port::total         5962                       # Packet count per connected requestor and responder (Count)
system.membus.pktCount_system.cpu.l1i.mem_side_port::system.mem_ctrl.port         6237                       # Packet count per connected requestor and responder (Count)
system.membus.pktCount_system.cpu.l1i.mem_side_port::total         6237                       # Packet count per connected requestor and responder (Count)
system.membus.pktCount::total                   12199                       # Packet count per connected requestor and responder (Count)
system.membus.pktSize_system.cpu.l1d.mem_side_port::system.mem_ctrl.port       160768                       # Cumulative packet size per connected requestor and responder (Byte)
system.membus.pktSize_system.cpu.l1d.mem_side_port::total       160768                       # Cumulative packet size per connected requestor and responder (Byte)
system.membus.pktSize_system.cpu.l1i.mem_side_port::system.mem_ctrl.port       133056                       # Cumulative packet size per connected requestor and responder (Byte)
system.membus.pktSize_system.cpu.l1i.mem_side_port::total       133056                       # Cumulative packet size per connected requestor and responder (Byte)
system.membus.pktSize::total                   293824                       # Cumulative packet size per connected requestor and responder (Byte)
system.membus.snoops                                1                       # Total snoops (Count)
system.membus.snoopTraffic                         64                       # Total snoop traffic (Byte)
system.membus.snoopFanout::samples               4067                       # Request fanout histogram (Count)
system.membus.snoopFanout::mean              0.004426                       # Request fanout histogram (Count)
system.membus.snoopFanout::stdev             0.066388                       # Request fanout histogram (Count)
system.membus.snoopFanout::underflows               0      0.00%      0.00% # Request fanout histogram (Count)
system.membus.snoopFanout::0                     4049     99.56%     99.56% # Request fanout histogram (Count)
system.membus.snoopFanout::1                       18      0.44%    100.00% # Request fanout histogram (Count)
system.membus.snoopFanout::2                        0      0.00%    100.00% # Request fanout histogram (Count)
system.membus.snoopFanout::overflows                0      0.00%    100.00% # Request fanout histogram (Count)
system.membus.snoopFanout::min_value                0                       # Request fanout histogram (Count)
system.membus.snoopFanout::max_value                1                       # Request fanout histogram (Count)
system.membus.snoopFanout::total                 4067                       # Request fanout histogram (Count)
system.membus.power_state.pwrStateResidencyTicks::UNDEFINED    813113005                       # Cumulative time (in ticks) in various power states (Tick)
system.membus.reqLayer2.occupancy           136436589                       # Layer occupancy (ticks) (Tick)
system.membus.reqLayer2.utilization               0.2                       # Layer utilization (Ratio)
system.membus.respLayer2.occupancy          134449335                       # Layer occupancy (ticks) (Tick)
system.membus.respLayer2.utilization              0.2                       # Layer utilization (Ratio)
system.membus.respLayer3.occupancy          142218673                       # Layer occupancy (ticks) (Tick)
system.membus.respLayer3.utilization              0.2                       # Layer utilization (Ratio)
system.membus.snoop_filter.totRequests           8133                       # Total number of requests made to the snoop filter. (Count)
system.membus.snoop_filter.hitSingleRequests         4066                       # Number of requests hitting in the snoop filter with a single holder of the requested data. (Count)
system.membus.snoop_filter.hitMultiRequests           18                       # Number of requests hitting in the snoop filter with multiple (>1) holders of the requested data. (Count)
system.membus.snoop_filter.totSnoops                0                       # Total number of snoops made to the snoop filter. (Count)
system.membus.snoop_filter.hitSingleSnoops            0                       # Number of snoops hitting in the snoop filter with a single holder of the requested data. (Count)
system.membus.snoop_filter.hitMultiSnoops            0                       # Number of snoops hitting in the snoop filter with multiple (>1) holders of the requested data. (Count)
system.workload.inst.arm                            0                       # number of arm instructions executed (Count)
system.workload.inst.quiesce                        0                       # number of quiesce instructions executed (Count)

---------- End Simulation Statistics   ----------
