
---------- Begin Simulation Statistics ----------
simSeconds                                   2.021359                       # Number of seconds simulated (Second)
simTicks                                 2021359118092                       # Number of ticks simulated (Tick)
finalTick                                2021359118092                       # Number of ticks from beginning of simulation (restored from checkpoints and never reset) (Tick)
simFreq                                  1000000000000                       # The number of ticks per simulated second ((Tick/Second))
hostSeconds                                    822.97                       # Real time elapsed on the host (Second)
hostTickRate                               2456162596                       # The number of ticks simulated per host second (ticks/s) ((Tick/Second))
hostMemory                                    8668644                       # Number of bytes of host memory used (Byte)
simInsts                                    191774025                       # Number of instructions simulated (Count)
simOps                                      320475217                       # Number of ops (including micro ops) simulated (Count)
hostInstRate                                   233025                       # Simulator instruction rate (inst/s) ((Count/Second))
hostOpRate                                     389410                       # Simulator op (including micro ops) rate (op/s) ((Count/Second))
system.clk_domain.clock                         13333                       # Clock period in ticks (Tick)
system.clk_domain.voltage_domain.voltage            1                       # Voltage in Volts (Volt)
system.cpu.numCycles                        151605725                       # Number of cpu cycles simulated (Cycle)
system.cpu.cpi                               0.790544                       # CPI: cycles per instruction (core level) ((Cycle/Count))
system.cpu.ipc                               1.264952                       # IPC: instructions per cycle (core level) ((Count/Cycle))
system.cpu.numWorkItemsStarted                      0                       # Number of work items this cpu started (Count)
system.cpu.numWorkItemsCompleted                    0                       # Number of work items this cpu completed (Count)
system.cpu.instsAdded                       394686941                       # Number of instructions added to the IQ (excludes non-spec) (Count)
system.cpu.nonSpecInstsAdded                  3231974                       # Number of non-speculative instructions added to the IQ (Count)
system.cpu.instsIssued                      366824072                       # Number of instructions issued (Count)
system.cpu.squashedInstsIssued                 806170                       # Number of squashed instructions issued (Count)
system.cpu.squashedInstsExamined             77443640                       # Number of squashed instructions iterated over during squash; mainly for profiling (Count)
system.cpu.squashedOperandsExamined         147781030                       # Number of squashed operands that are examined and possibly removed from graph (Count)
system.cpu.squashedNonSpecRemoved              122071                       # Number of squashed non-spec instructions that were removed (Count)
system.cpu.numIssuedDist::samples           151343940                       # Number of insts issued each cycle (Count)
system.cpu.numIssuedDist::mean               2.423778                       # Number of insts issued each cycle (Count)
system.cpu.numIssuedDist::stdev              2.547607                       # Number of insts issued each cycle (Count)
system.cpu.numIssuedDist::underflows                0      0.00%      0.00% # Number of insts issued each cycle (Count)
system.cpu.numIssuedDist::0                  55721866     36.82%     36.82% # Number of insts issued each cycle (Count)
system.cpu.numIssuedDist::1                  17685259     11.69%     48.50% # Number of insts issued each cycle (Count)
system.cpu.numIssuedDist::2                  14691990      9.71%     58.21% # Number of insts issued each cycle (Count)
system.cpu.numIssuedDist::3                  13331528      8.81%     67.02% # Number of insts issued each cycle (Count)
system.cpu.numIssuedDist::4                  15973123     10.55%     77.57% # Number of insts issued each cycle (Count)
system.cpu.numIssuedDist::5                  10873575      7.18%     84.76% # Number of insts issued each cycle (Count)
system.cpu.numIssuedDist::6                   8376327      5.53%     90.29% # Number of insts issued each cycle (Count)
system.cpu.numIssuedDist::7                   6280256      4.15%     94.44% # Number of insts issued each cycle (Count)
system.cpu.numIssuedDist::8                   8410016      5.56%    100.00% # Number of insts issued each cycle (Count)
system.cpu.numIssuedDist::overflows                 0      0.00%    100.00% # Number of insts issued each cycle (Count)
system.cpu.numIssuedDist::min_value                 0                       # Number of insts issued each cycle (Count)
system.cpu.numIssuedDist::max_value                 8                       # Number of insts issued each cycle (Count)
system.cpu.numIssuedDist::total             151343940                       # Number of insts issued each cycle (Count)
system.cpu.statFuBusy::No_OpClass                   0      0.00%      0.00% # attempts to use FU when none available (Count)
system.cpu.statFuBusy::IntAlu                 2604440     22.60%     22.60% # attempts to use FU when none available (Count)
system.cpu.statFuBusy::IntMult                      0      0.00%     22.60% # attempts to use FU when none available (Count)
system.cpu.statFuBusy::IntDiv                       0      0.00%     22.60% # attempts to use FU when none available (Count)
system.cpu.statFuBusy::FloatAdd                     0      0.00%     22.60% # attempts to use FU when none available (Count)
system.cpu.statFuBusy::FloatCmp                     0      0.00%     22.60% # attempts to use FU when none available (Count)
system.cpu.statFuBusy::FloatCvt                     0      0.00%     22.60% # attempts to use FU when none available (Count)
system.cpu.statFuBusy::FloatMult                    0      0.00%     22.60% # attempts to use FU when none available (Count)
system.cpu.statFuBusy::FloatMultAcc                 0      0.00%     22.60% # attempts to use FU when none available (Count)
system.cpu.statFuBusy::FloatDiv                     0      0.00%     22.60% # attempts to use FU when none available (Count)
system.cpu.statFuBusy::FloatMisc                    0      0.00%     22.60% # attempts to use FU when none available (Count)
system.cpu.statFuBusy::FloatSqrt                    0      0.00%     22.60% # attempts to use FU when none available (Count)
system.cpu.statFuBusy::SimdAdd                     21      0.00%     22.60% # attempts to use FU when none available (Count)
system.cpu.statFuBusy::SimdAddAcc                   0      0.00%     22.60% # attempts to use FU when none available (Count)
system.cpu.statFuBusy::SimdAlu                   8600      0.07%     22.67% # attempts to use FU when none available (Count)
system.cpu.statFuBusy::SimdCmp                      1      0.00%     22.67% # attempts to use FU when none available (Count)
system.cpu.statFuBusy::SimdCvt                    238      0.00%     22.67% # attempts to use FU when none available (Count)
system.cpu.statFuBusy::SimdMisc                   768      0.01%     22.68% # attempts to use FU when none available (Count)
system.cpu.statFuBusy::SimdMult                     0      0.00%     22.68% # attempts to use FU when none available (Count)
system.cpu.statFuBusy::SimdMultAcc                  0      0.00%     22.68% # attempts to use FU when none available (Count)
system.cpu.statFuBusy::SimdMatMultAcc               0      0.00%     22.68% # attempts to use FU when none available (Count)
system.cpu.statFuBusy::SimdShift                   41      0.00%     22.68% # attempts to use FU when none available (Count)
system.cpu.statFuBusy::SimdShiftAcc                 0      0.00%     22.68% # attempts to use FU when none available (Count)
system.cpu.statFuBusy::SimdDiv                      0      0.00%     22.68% # attempts to use FU when none available (Count)
system.cpu.statFuBusy::SimdSqrt                     0      0.00%     22.68% # attempts to use FU when none available (Count)
system.cpu.statFuBusy::SimdFloatAdd                 0      0.00%     22.68% # attempts to use FU when none available (Count)
system.cpu.statFuBusy::SimdFloatAlu                 0      0.00%     22.68% # attempts to use FU when none available (Count)
system.cpu.statFuBusy::SimdFloatCmp                 0      0.00%     22.68% # attempts to use FU when none available (Count)
system.cpu.statFuBusy::SimdFloatCvt                 0      0.00%     22.68% # attempts to use FU when none available (Count)
system.cpu.statFuBusy::SimdFloatDiv                 0      0.00%     22.68% # attempts to use FU when none available (Count)
system.cpu.statFuBusy::SimdFloatMisc                0      0.00%     22.68% # attempts to use FU when none available (Count)
system.cpu.statFuBusy::SimdFloatMult                0      0.00%     22.68% # attempts to use FU when none available (Count)
system.cpu.statFuBusy::SimdFloatMultAcc             0      0.00%     22.68% # attempts to use FU when none available (Count)
system.cpu.statFuBusy::SimdFloatMatMultAcc            0      0.00%     22.68% # attempts to use FU when none available (Count)
system.cpu.statFuBusy::SimdFloatSqrt                0      0.00%     22.68% # attempts to use FU when none available (Count)
system.cpu.statFuBusy::SimdReduceAdd                0      0.00%     22.68% # attempts to use FU when none available (Count)
system.cpu.statFuBusy::SimdReduceAlu                0      0.00%     22.68% # attempts to use FU when none available (Count)
system.cpu.statFuBusy::SimdReduceCmp                0      0.00%     22.68% # attempts to use FU when none available (Count)
system.cpu.statFuBusy::SimdFloatReduceAdd            0      0.00%     22.68% # attempts to use FU when none available (Count)
system.cpu.statFuBusy::SimdFloatReduceCmp            0      0.00%     22.68% # attempts to use FU when none available (Count)
system.cpu.statFuBusy::SimdAes                      0      0.00%     22.68% # attempts to use FU when none available (Count)
system.cpu.statFuBusy::SimdAesMix                   0      0.00%     22.68% # attempts to use FU when none available (Count)
system.cpu.statFuBusy::SimdSha1Hash                 0      0.00%     22.68% # attempts to use FU when none available (Count)
system.cpu.statFuBusy::SimdSha1Hash2                0      0.00%     22.68% # attempts to use FU when none available (Count)
system.cpu.statFuBusy::SimdSha256Hash               0      0.00%     22.68% # attempts to use FU when none available (Count)
system.cpu.statFuBusy::SimdSha256Hash2              0      0.00%     22.68% # attempts to use FU when none available (Count)
system.cpu.statFuBusy::SimdShaSigma2                0      0.00%     22.68% # attempts to use FU when none available (Count)
system.cpu.statFuBusy::SimdShaSigma3                0      0.00%     22.68% # attempts to use FU when none available (Count)
system.cpu.statFuBusy::SimdPredAlu                  0      0.00%     22.68% # attempts to use FU when none available (Count)
system.cpu.statFuBusy::Matrix                       0      0.00%     22.68% # attempts to use FU when none available (Count)
system.cpu.statFuBusy::MatrixMov                    0      0.00%     22.68% # attempts to use FU when none available (Count)
system.cpu.statFuBusy::MatrixOP                     0      0.00%     22.68% # attempts to use FU when none available (Count)
system.cpu.statFuBusy::MemRead                4393520     38.12%     60.80% # attempts to use FU when none available (Count)
system.cpu.statFuBusy::MemWrite               4471676     38.79%     99.59% # attempts to use FU when none available (Count)
system.cpu.statFuBusy::FloatMemRead             29559      0.26%     99.85% # attempts to use FU when none available (Count)
system.cpu.statFuBusy::FloatMemWrite            17640      0.15%    100.00% # attempts to use FU when none available (Count)
system.cpu.statFuBusy::IprAccess                    0      0.00%    100.00% # attempts to use FU when none available (Count)
system.cpu.statFuBusy::InstPrefetch                 0      0.00%    100.00% # attempts to use FU when none available (Count)
system.cpu.statFuBusy::SimdUnitStrideLoad            0      0.00%    100.00% # attempts to use FU when none available (Count)
system.cpu.statFuBusy::SimdUnitStrideStore            0      0.00%    100.00% # attempts to use FU when none available (Count)
system.cpu.statFuBusy::SimdUnitStrideMaskLoad            0      0.00%    100.00% # attempts to use FU when none available (Count)
system.cpu.statFuBusy::SimdUnitStrideMaskStore            0      0.00%    100.00% # attempts to use FU when none available (Count)
system.cpu.statFuBusy::SimdStridedLoad              0      0.00%    100.00% # attempts to use FU when none available (Count)
system.cpu.statFuBusy::SimdStridedStore             0      0.00%    100.00% # attempts to use FU when none available (Count)
system.cpu.statFuBusy::SimdIndexedLoad              0      0.00%    100.00% # attempts to use FU when none available (Count)
system.cpu.statFuBusy::SimdIndexedStore             0      0.00%    100.00% # attempts to use FU when none available (Count)
system.cpu.statFuBusy::SimdWholeRegisterLoad            0      0.00%    100.00% # attempts to use FU when none available (Count)
system.cpu.statFuBusy::SimdWholeRegisterStore            0      0.00%    100.00% # attempts to use FU when none available (Count)
system.cpu.statFuBusy::SimdUnitStrideFaultOnlyFirstLoad            0      0.00%    100.00% # attempts to use FU when none available (Count)
system.cpu.statFuBusy::SimdUnitStrideSegmentedLoad            0      0.00%    100.00% # attempts to use FU when none available (Count)
system.cpu.statFuBusy::SimdUnitStrideSegmentedStore            0      0.00%    100.00% # attempts to use FU when none available (Count)
system.cpu.statFuBusy::SimdExt                      0      0.00%    100.00% # attempts to use FU when none available (Count)
system.cpu.statFuBusy::SimdFloatExt                 0      0.00%    100.00% # attempts to use FU when none available (Count)
system.cpu.statFuBusy::SimdConfig                   0      0.00%    100.00% # attempts to use FU when none available (Count)
system.cpu.statIssuedInstType_0::No_OpClass      5426825      1.48%      1.48% # Number of instructions issued per FU type, per thread (Count)
system.cpu.statIssuedInstType_0::IntAlu     257720311     70.26%     71.74% # Number of instructions issued per FU type, per thread (Count)
system.cpu.statIssuedInstType_0::IntMult      7284644      1.99%     73.72% # Number of instructions issued per FU type, per thread (Count)
system.cpu.statIssuedInstType_0::IntDiv        715168      0.19%     73.92% # Number of instructions issued per FU type, per thread (Count)
system.cpu.statIssuedInstType_0::FloatAdd        61463      0.02%     73.93% # Number of instructions issued per FU type, per thread (Count)
system.cpu.statIssuedInstType_0::FloatCmp            0      0.00%     73.93% # Number of instructions issued per FU type, per thread (Count)
system.cpu.statIssuedInstType_0::FloatCvt         1485      0.00%     73.93% # Number of instructions issued per FU type, per thread (Count)
system.cpu.statIssuedInstType_0::FloatMult            0      0.00%     73.93% # Number of instructions issued per FU type, per thread (Count)
system.cpu.statIssuedInstType_0::FloatMultAcc            0      0.00%     73.93% # Number of instructions issued per FU type, per thread (Count)
system.cpu.statIssuedInstType_0::FloatDiv            0      0.00%     73.93% # Number of instructions issued per FU type, per thread (Count)
system.cpu.statIssuedInstType_0::FloatMisc            0      0.00%     73.93% # Number of instructions issued per FU type, per thread (Count)
system.cpu.statIssuedInstType_0::FloatSqrt            0      0.00%     73.93% # Number of instructions issued per FU type, per thread (Count)
system.cpu.statIssuedInstType_0::SimdAdd         7747      0.00%     73.94% # Number of instructions issued per FU type, per thread (Count)
system.cpu.statIssuedInstType_0::SimdAddAcc            0      0.00%     73.94% # Number of instructions issued per FU type, per thread (Count)
system.cpu.statIssuedInstType_0::SimdAlu       150953      0.04%     73.98% # Number of instructions issued per FU type, per thread (Count)
system.cpu.statIssuedInstType_0::SimdCmp           11      0.00%     73.98% # Number of instructions issued per FU type, per thread (Count)
system.cpu.statIssuedInstType_0::SimdCvt        61153      0.02%     73.99% # Number of instructions issued per FU type, per thread (Count)
system.cpu.statIssuedInstType_0::SimdMisc       152007      0.04%     74.04% # Number of instructions issued per FU type, per thread (Count)
system.cpu.statIssuedInstType_0::SimdMult            0      0.00%     74.04% # Number of instructions issued per FU type, per thread (Count)
system.cpu.statIssuedInstType_0::SimdMultAcc            0      0.00%     74.04% # Number of instructions issued per FU type, per thread (Count)
system.cpu.statIssuedInstType_0::SimdMatMultAcc            0      0.00%     74.04% # Number of instructions issued per FU type, per thread (Count)
system.cpu.statIssuedInstType_0::SimdShift         3733      0.00%     74.04% # Number of instructions issued per FU type, per thread (Count)
system.cpu.statIssuedInstType_0::SimdShiftAcc            0      0.00%     74.04% # Number of instructions issued per FU type, per thread (Count)
system.cpu.statIssuedInstType_0::SimdDiv            0      0.00%     74.04% # Number of instructions issued per FU type, per thread (Count)
system.cpu.statIssuedInstType_0::SimdSqrt            0      0.00%     74.04% # Number of instructions issued per FU type, per thread (Count)
system.cpu.statIssuedInstType_0::SimdFloatAdd        18437      0.01%     74.04% # Number of instructions issued per FU type, per thread (Count)
system.cpu.statIssuedInstType_0::SimdFloatAlu            0      0.00%     74.04% # Number of instructions issued per FU type, per thread (Count)
system.cpu.statIssuedInstType_0::SimdFloatCmp            0      0.00%     74.04% # Number of instructions issued per FU type, per thread (Count)
system.cpu.statIssuedInstType_0::SimdFloatCvt        23173      0.01%     74.05% # Number of instructions issued per FU type, per thread (Count)
system.cpu.statIssuedInstType_0::SimdFloatDiv         5436      0.00%     74.05% # Number of instructions issued per FU type, per thread (Count)
system.cpu.statIssuedInstType_0::SimdFloatMisc            0      0.00%     74.05% # Number of instructions issued per FU type, per thread (Count)
system.cpu.statIssuedInstType_0::SimdFloatMult         9264      0.00%     74.05% # Number of instructions issued per FU type, per thread (Count)
system.cpu.statIssuedInstType_0::SimdFloatMultAcc            0      0.00%     74.05% # Number of instructions issued per FU type, per thread (Count)
system.cpu.statIssuedInstType_0::SimdFloatMatMultAcc            0      0.00%     74.05% # Number of instructions issued per FU type, per thread (Count)
system.cpu.statIssuedInstType_0::SimdFloatSqrt          772      0.00%     74.05% # Number of instructions issued per FU type, per thread (Count)
system.cpu.statIssuedInstType_0::SimdReduceAdd            0      0.00%     74.05% # Number of instructions issued per FU type, per thread (Count)
system.cpu.statIssuedInstType_0::SimdReduceAlu            0      0.00%     74.05% # Number of instructions issued per FU type, per thread (Count)
system.cpu.statIssuedInstType_0::SimdReduceCmp            0      0.00%     74.05% # Number of instructions issued per FU type, per thread (Count)
system.cpu.statIssuedInstType_0::SimdFloatReduceAdd            0      0.00%     74.05% # Number of instructions issued per FU type, per thread (Count)
system.cpu.statIssuedInstType_0::SimdFloatReduceCmp            0      0.00%     74.05% # Number of instructions issued per FU type, per thread (Count)
system.cpu.statIssuedInstType_0::SimdAes            0      0.00%     74.05% # Number of instructions issued per FU type, per thread (Count)
system.cpu.statIssuedInstType_0::SimdAesMix            0      0.00%     74.05% # Number of instructions issued per FU type, per thread (Count)
system.cpu.statIssuedInstType_0::SimdSha1Hash            0      0.00%     74.05% # Number of instructions issued per FU type, per thread (Count)
system.cpu.statIssuedInstType_0::SimdSha1Hash2            0      0.00%     74.05% # Number of instructions issued per FU type, per thread (Count)
system.cpu.statIssuedInstType_0::SimdSha256Hash            0      0.00%     74.05% # Number of instructions issued per FU type, per thread (Count)
system.cpu.statIssuedInstType_0::SimdSha256Hash2            0      0.00%     74.05% # Number of instructions issued per FU type, per thread (Count)
system.cpu.statIssuedInstType_0::SimdShaSigma2            0      0.00%     74.05% # Number of instructions issued per FU type, per thread (Count)
system.cpu.statIssuedInstType_0::SimdShaSigma3            0      0.00%     74.05% # Number of instructions issued per FU type, per thread (Count)
system.cpu.statIssuedInstType_0::SimdPredAlu            0      0.00%     74.05% # Number of instructions issued per FU type, per thread (Count)
system.cpu.statIssuedInstType_0::Matrix             0      0.00%     74.05% # Number of instructions issued per FU type, per thread (Count)
system.cpu.statIssuedInstType_0::MatrixMov            0      0.00%     74.05% # Number of instructions issued per FU type, per thread (Count)
system.cpu.statIssuedInstType_0::MatrixOP            0      0.00%     74.05% # Number of instructions issued per FU type, per thread (Count)
system.cpu.statIssuedInstType_0::MemRead     57709162     15.73%     89.78% # Number of instructions issued per FU type, per thread (Count)
system.cpu.statIssuedInstType_0::MemWrite     36521974      9.96%     99.74% # Number of instructions issued per FU type, per thread (Count)
system.cpu.statIssuedInstType_0::FloatMemRead       478968      0.13%     99.87% # Number of instructions issued per FU type, per thread (Count)
system.cpu.statIssuedInstType_0::FloatMemWrite       471386      0.13%    100.00% # Number of instructions issued per FU type, per thread (Count)
system.cpu.statIssuedInstType_0::IprAccess            0      0.00%    100.00% # Number of instructions issued per FU type, per thread (Count)
system.cpu.statIssuedInstType_0::InstPrefetch            0      0.00%    100.00% # Number of instructions issued per FU type, per thread (Count)
system.cpu.statIssuedInstType_0::SimdUnitStrideLoad            0      0.00%    100.00% # Number of instructions issued per FU type, per thread (Count)
system.cpu.statIssuedInstType_0::SimdUnitStrideStore            0      0.00%    100.00% # Number of instructions issued per FU type, per thread (Count)
system.cpu.statIssuedInstType_0::SimdUnitStrideMaskLoad            0      0.00%    100.00% # Number of instructions issued per FU type, per thread (Count)
system.cpu.statIssuedInstType_0::SimdUnitStrideMaskStore            0      0.00%    100.00% # Number of instructions issued per FU type, per thread (Count)
system.cpu.statIssuedInstType_0::SimdStridedLoad            0      0.00%    100.00% # Number of instructions issued per FU type, per thread (Count)
system.cpu.statIssuedInstType_0::SimdStridedStore            0      0.00%    100.00% # Number of instructions issued per FU type, per thread (Count)
system.cpu.statIssuedInstType_0::SimdIndexedLoad            0      0.00%    100.00% # Number of instructions issued per FU type, per thread (Count)
system.cpu.statIssuedInstType_0::SimdIndexedStore            0      0.00%    100.00% # Number of instructions issued per FU type, per thread (Count)
system.cpu.statIssuedInstType_0::SimdWholeRegisterLoad            0      0.00%    100.00% # Number of instructions issued per FU type, per thread (Count)
system.cpu.statIssuedInstType_0::SimdWholeRegisterStore            0      0.00%    100.00% # Number of instructions issued per FU type, per thread (Count)
system.cpu.statIssuedInstType_0::SimdUnitStrideFaultOnlyFirstLoad            0      0.00%    100.00% # Number of instructions issued per FU type, per thread (Count)
system.cpu.statIssuedInstType_0::SimdUnitStrideSegmentedLoad            0      0.00%    100.00% # Number of instructions issued per FU type, per thread (Count)
system.cpu.statIssuedInstType_0::SimdUnitStrideSegmentedStore            0      0.00%    100.00% # Number of instructions issued per FU type, per thread (Count)
system.cpu.statIssuedInstType_0::SimdExt            0      0.00%    100.00% # Number of instructions issued per FU type, per thread (Count)
system.cpu.statIssuedInstType_0::SimdFloatExt            0      0.00%    100.00% # Number of instructions issued per FU type, per thread (Count)
system.cpu.statIssuedInstType_0::SimdConfig            0      0.00%    100.00% # Number of instructions issued per FU type, per thread (Count)
system.cpu.statIssuedInstType_0::total      366824072                       # Number of instructions issued per FU type, per thread (Count)
system.cpu.issueRate                         2.419592                       # Inst issue rate ((Count/Cycle))
system.cpu.fuBusy                            11526504                       # FU busy when requested (Count)
system.cpu.fuBusyRate                        0.031422                       # FU busy rate (busy events/executed inst) ((Count/Count))
system.cpu.intInstQueueReads                894258530                       # Number of integer instruction queue reads (Count)
system.cpu.intInstQueueWrites               474359645                       # Number of integer instruction queue writes (Count)
system.cpu.intInstQueueWakeupAccesses       359111282                       # Number of integer instruction queue wakeup accesses (Count)
system.cpu.fpInstQueueReads                   3066221                       # Number of floating instruction queue reads (Count)
system.cpu.fpInstQueueWrites                  1932461                       # Number of floating instruction queue writes (Count)
system.cpu.fpInstQueueWakeupAccesses          1470829                       # Number of floating instruction queue wakeup accesses (Count)
system.cpu.vecInstQueueReads                        0                       # Number of vector instruction queue reads (Count)
system.cpu.vecInstQueueWrites                       0                       # Number of vector instruction queue writes (Count)
system.cpu.vecInstQueueWakeupAccesses               0                       # Number of vector instruction queue wakeup accesses (Count)
system.cpu.intAluAccesses                   371364405                       # Number of integer alu accesses (Count)
system.cpu.fpAluAccesses                      1559346                       # Number of floating point alu accesses (Count)
system.cpu.vecAluAccesses                           0                       # Number of vector alu accesses (Count)
system.cpu.numSquashedInsts                   2487531                       # Number of squashed instructions skipped in execute (Count)
system.cpu.numSwp                                   0                       # Number of swp insts executed (Count)
system.cpu.timesIdled                           57711                       # Number of times that the entire CPU went into an idle state and unscheduled itself (Count)
system.cpu.idleCycles                          261785                       # Total number of cycles that the CPU has spent unscheduled due to idling (Cycle)
system.cpu.MemDepUnit__0.insertedLoads       63031313                       # Number of loads inserted to the mem dependence unit. (Count)
system.cpu.MemDepUnit__0.insertedStores      43970609                       # Number of stores inserted to the mem dependence unit. (Count)
system.cpu.MemDepUnit__0.conflictingLoads     21681735                       # Number of conflicting loads. (Count)
system.cpu.MemDepUnit__0.conflictingStores     18437632                       # Number of conflicting stores. (Count)
system.cpu.MemDepUnit__1.insertedLoads              0                       # Number of loads inserted to the mem dependence unit. (Count)
system.cpu.MemDepUnit__1.insertedStores             0                       # Number of stores inserted to the mem dependence unit. (Count)
system.cpu.MemDepUnit__1.conflictingLoads            0                       # Number of conflicting loads. (Count)
system.cpu.MemDepUnit__1.conflictingStores            0                       # Number of conflicting stores. (Count)
system.cpu.MemDepUnit__2.insertedLoads              0                       # Number of loads inserted to the mem dependence unit. (Count)
system.cpu.MemDepUnit__2.insertedStores             0                       # Number of stores inserted to the mem dependence unit. (Count)
system.cpu.MemDepUnit__2.conflictingLoads            0                       # Number of conflicting loads. (Count)
system.cpu.MemDepUnit__2.conflictingStores            0                       # Number of conflicting stores. (Count)
system.cpu.MemDepUnit__3.insertedLoads              0                       # Number of loads inserted to the mem dependence unit. (Count)
system.cpu.MemDepUnit__3.insertedStores             0                       # Number of stores inserted to the mem dependence unit. (Count)
system.cpu.MemDepUnit__3.conflictingLoads            0                       # Number of conflicting loads. (Count)
system.cpu.MemDepUnit__3.conflictingStores            0                       # Number of conflicting stores. (Count)
system.cpu.branchPred.lookups_0::NoBranch         2137      0.01%      0.01% # Number of BP lookups (Count)
system.cpu.branchPred.lookups_0::Return       5053849     15.08%     15.09% # Number of BP lookups (Count)
system.cpu.branchPred.lookups_0::CallDirect      5467793     16.32%     31.41% # Number of BP lookups (Count)
system.cpu.branchPred.lookups_0::CallIndirect        41647      0.12%     31.53% # Number of BP lookups (Count)
system.cpu.branchPred.lookups_0::DirectCond     21577504     64.40%     95.93% # Number of BP lookups (Count)
system.cpu.branchPred.lookups_0::DirectUncond      1083714      3.23%     99.17% # Number of BP lookups (Count)
system.cpu.branchPred.lookups_0::IndirectCond            0      0.00%     99.17% # Number of BP lookups (Count)
system.cpu.branchPred.lookups_0::IndirectUncond       278724      0.83%    100.00% # Number of BP lookups (Count)
system.cpu.branchPred.lookups_0::total       33505368                       # Number of BP lookups (Count)
system.cpu.branchPred.squashes_0::NoBranch         1856      0.02%      0.02% # Number of branches that got squashed (completely removed) as an earlier branch was mispredicted. (Count)
system.cpu.branchPred.squashes_0::Return      1379646     14.54%     14.55% # Number of branches that got squashed (completely removed) as an earlier branch was mispredicted. (Count)
system.cpu.branchPred.squashes_0::CallDirect      1833566     19.32%     33.87% # Number of branches that got squashed (completely removed) as an earlier branch was mispredicted. (Count)
system.cpu.branchPred.squashes_0::CallIndirect         1665      0.02%     33.89% # Number of branches that got squashed (completely removed) as an earlier branch was mispredicted. (Count)
system.cpu.branchPred.squashes_0::DirectCond      5870900     61.85%     95.74% # Number of branches that got squashed (completely removed) as an earlier branch was mispredicted. (Count)
system.cpu.branchPred.squashes_0::DirectUncond       334259      3.52%     99.26% # Number of branches that got squashed (completely removed) as an earlier branch was mispredicted. (Count)
system.cpu.branchPred.squashes_0::IndirectCond            0      0.00%     99.26% # Number of branches that got squashed (completely removed) as an earlier branch was mispredicted. (Count)
system.cpu.branchPred.squashes_0::IndirectUncond        69829      0.74%    100.00% # Number of branches that got squashed (completely removed) as an earlier branch was mispredicted. (Count)
system.cpu.branchPred.squashes_0::total       9491721                       # Number of branches that got squashed (completely removed) as an earlier branch was mispredicted. (Count)
system.cpu.branchPred.corrected_0::NoBranch          438      0.07%      0.07% # Number of branches that got corrected but not yet commited. Branches get corrected by decode or after execute. Also a branch misprediction can be detected out-of-order. Therefore, a corrected branch might not end up beeing committed in case an even earlier branch was mispredicted (Count)
system.cpu.branchPred.corrected_0::Return        12277      1.95%      2.02% # Number of branches that got corrected but not yet commited. Branches get corrected by decode or after execute. Also a branch misprediction can be detected out-of-order. Therefore, a corrected branch might not end up beeing committed in case an even earlier branch was mispredicted (Count)
system.cpu.branchPred.corrected_0::CallDirect        40364      6.42%      8.45% # Number of branches that got corrected but not yet commited. Branches get corrected by decode or after execute. Also a branch misprediction can be detected out-of-order. Therefore, a corrected branch might not end up beeing committed in case an even earlier branch was mispredicted (Count)
system.cpu.branchPred.corrected_0::CallIndirect         2067      0.33%      8.77% # Number of branches that got corrected but not yet commited. Branches get corrected by decode or after execute. Also a branch misprediction can be detected out-of-order. Therefore, a corrected branch might not end up beeing committed in case an even earlier branch was mispredicted (Count)
system.cpu.branchPred.corrected_0::DirectCond       532931     84.80%     93.57% # Number of branches that got corrected but not yet commited. Branches get corrected by decode or after execute. Also a branch misprediction can be detected out-of-order. Therefore, a corrected branch might not end up beeing committed in case an even earlier branch was mispredicted (Count)
system.cpu.branchPred.corrected_0::DirectUncond        18471      2.94%     96.51% # Number of branches that got corrected but not yet commited. Branches get corrected by decode or after execute. Also a branch misprediction can be detected out-of-order. Therefore, a corrected branch might not end up beeing committed in case an even earlier branch was mispredicted (Count)
system.cpu.branchPred.corrected_0::IndirectCond            0      0.00%     96.51% # Number of branches that got corrected but not yet commited. Branches get corrected by decode or after execute. Also a branch misprediction can be detected out-of-order. Therefore, a corrected branch might not end up beeing committed in case an even earlier branch was mispredicted (Count)
system.cpu.branchPred.corrected_0::IndirectUncond        21928      3.49%    100.00% # Number of branches that got corrected but not yet commited. Branches get corrected by decode or after execute. Also a branch misprediction can be detected out-of-order. Therefore, a corrected branch might not end up beeing committed in case an even earlier branch was mispredicted (Count)
system.cpu.branchPred.corrected_0::total       628476                       # Number of branches that got corrected but not yet commited. Branches get corrected by decode or after execute. Also a branch misprediction can be detected out-of-order. Therefore, a corrected branch might not end up beeing committed in case an even earlier branch was mispredicted (Count)
system.cpu.branchPred.earlyResteers_0::NoBranch            0                       # Number of branches that got redirected after decode. (Count)
system.cpu.branchPred.earlyResteers_0::Return            0                       # Number of branches that got redirected after decode. (Count)
system.cpu.branchPred.earlyResteers_0::CallDirect            0                       # Number of branches that got redirected after decode. (Count)
system.cpu.branchPred.earlyResteers_0::CallIndirect            0                       # Number of branches that got redirected after decode. (Count)
system.cpu.branchPred.earlyResteers_0::DirectCond            0                       # Number of branches that got redirected after decode. (Count)
system.cpu.branchPred.earlyResteers_0::DirectUncond            0                       # Number of branches that got redirected after decode. (Count)
system.cpu.branchPred.earlyResteers_0::IndirectCond            0                       # Number of branches that got redirected after decode. (Count)
system.cpu.branchPred.earlyResteers_0::IndirectUncond            0                       # Number of branches that got redirected after decode. (Count)
system.cpu.branchPred.earlyResteers_0::total            0                       # Number of branches that got redirected after decode. (Count)
system.cpu.branchPred.committed_0::NoBranch          281      0.00%      0.00% # Number of branches finally committed  (Count)
system.cpu.branchPred.committed_0::Return      3674202     15.30%     15.30% # Number of branches finally committed  (Count)
system.cpu.branchPred.committed_0::CallDirect      3634225     15.13%     30.44% # Number of branches finally committed  (Count)
system.cpu.branchPred.committed_0::CallIndirect        39982      0.17%     30.60% # Number of branches finally committed  (Count)
system.cpu.branchPred.committed_0::DirectCond     15706604     65.41%     96.01% # Number of branches finally committed  (Count)
system.cpu.branchPred.committed_0::DirectUncond       749455      3.12%     99.13% # Number of branches finally committed  (Count)
system.cpu.branchPred.committed_0::IndirectCond            0      0.00%     99.13% # Number of branches finally committed  (Count)
system.cpu.branchPred.committed_0::IndirectUncond       208895      0.87%    100.00% # Number of branches finally committed  (Count)
system.cpu.branchPred.committed_0::total     24013644                       # Number of branches finally committed  (Count)
system.cpu.branchPred.mispredicted_0::NoBranch          281      0.05%      0.05% # Number of committed branches that were mispredicted. (Count)
system.cpu.branchPred.mispredicted_0::Return        12264      2.15%      2.20% # Number of committed branches that were mispredicted. (Count)
system.cpu.branchPred.mispredicted_0::CallDirect        33764      5.92%      8.12% # Number of committed branches that were mispredicted. (Count)
system.cpu.branchPred.mispredicted_0::CallIndirect         2036      0.36%      8.48% # Number of committed branches that were mispredicted. (Count)
system.cpu.branchPred.mispredicted_0::DirectCond       484748     85.05%     93.53% # Number of committed branches that were mispredicted. (Count)
system.cpu.branchPred.mispredicted_0::DirectUncond        15049      2.64%     96.17% # Number of committed branches that were mispredicted. (Count)
system.cpu.branchPred.mispredicted_0::IndirectCond            0      0.00%     96.17% # Number of committed branches that were mispredicted. (Count)
system.cpu.branchPred.mispredicted_0::IndirectUncond        21832      3.83%    100.00% # Number of committed branches that were mispredicted. (Count)
system.cpu.branchPred.mispredicted_0::total       569974                       # Number of committed branches that were mispredicted. (Count)
system.cpu.branchPred.targetProvider_0::NoTarget     11860175     35.40%     35.40% # The component providing the target for taken branches (Count)
system.cpu.branchPred.targetProvider_0::BTB     16330913     48.74%     84.14% # The component providing the target for taken branches (Count)
system.cpu.branchPred.targetProvider_0::RAS      5053848     15.08%     99.22% # The component providing the target for taken branches (Count)
system.cpu.branchPred.targetProvider_0::Indirect       260432      0.78%    100.00% # The component providing the target for taken branches (Count)
system.cpu.branchPred.targetProvider_0::total     33505368                       # The component providing the target for taken branches (Count)
system.cpu.branchPred.targetWrong_0::NoBranch       270029     44.59%     44.59% # Number of branches where the target was incorrect or not available at prediction time. (Count)
system.cpu.branchPred.targetWrong_0::Return       309249     51.06%     95.65% # Number of branches where the target was incorrect or not available at prediction time. (Count)
system.cpu.branchPred.targetWrong_0::CallDirect        12277      2.03%     97.68% # Number of branches where the target was incorrect or not available at prediction time. (Count)
system.cpu.branchPred.targetWrong_0::CallIndirect        14053      2.32%    100.00% # Number of branches where the target was incorrect or not available at prediction time. (Count)
system.cpu.branchPred.targetWrong_0::DirectCond            0      0.00%    100.00% # Number of branches where the target was incorrect or not available at prediction time. (Count)
system.cpu.branchPred.targetWrong_0::DirectUncond            0      0.00%    100.00% # Number of branches where the target was incorrect or not available at prediction time. (Count)
system.cpu.branchPred.targetWrong_0::IndirectCond            0      0.00%    100.00% # Number of branches where the target was incorrect or not available at prediction time. (Count)
system.cpu.branchPred.targetWrong_0::IndirectUncond            0      0.00%    100.00% # Number of branches where the target was incorrect or not available at prediction time. (Count)
system.cpu.branchPred.targetWrong_0::total       605608                       # Number of branches where the target was incorrect or not available at prediction time. (Count)
system.cpu.branchPred.condPredicted          21579641                       # Number of conditional branches predicted (Count)
system.cpu.branchPred.condPredictedTaken      9922976                       # Number of conditional branches predicted as taken (Count)
system.cpu.branchPred.condIncorrect            628476                       # Number of conditional branches incorrect (Count)
system.cpu.branchPred.predTakenBTBMiss          80638                       # Number of branches predicted taken but missed in BTB (Count)
system.cpu.branchPred.NotTakenMispredicted       312419                       # Number branches predicted 'not taken' but turned out to be taken (Count)
system.cpu.branchPred.TakenMispredicted        316057                       # Number branches predicted taken but are actually not taken (Count)
system.cpu.branchPred.BTBLookups             33505368                       # Number of BTB lookups (Count)
system.cpu.branchPred.BTBUpdates               275709                       # Number of BTB updates (Count)
system.cpu.branchPred.BTBHits                20288561                       # Number of BTB hits (Count)
system.cpu.branchPred.BTBHitRatio            0.605532                       # BTB Hit Ratio (Ratio)
system.cpu.branchPred.BTBMispredicted           84034                       # Number BTB mispredictions. No target found or target wrong (Count)
system.cpu.branchPred.indirectLookups          320371                       # Number of indirect predictor lookups. (Count)
system.cpu.branchPred.indirectHits             260432                       # Number of indirect target hits. (Count)
system.cpu.branchPred.indirectMisses            59939                       # Number of indirect misses. (Count)
system.cpu.branchPred.indirectMispredicted            0                       # Number of mispredicted indirect branches. (Count)
system.cpu.branchPred.btb.lookups::NoBranch         2137      0.01%      0.01% # Number of BTB lookups (Count)
system.cpu.branchPred.btb.lookups::Return      5053849     15.08%     15.09% # Number of BTB lookups (Count)
system.cpu.branchPred.btb.lookups::CallDirect      5467793     16.32%     31.41% # Number of BTB lookups (Count)
system.cpu.branchPred.btb.lookups::CallIndirect        41647      0.12%     31.53% # Number of BTB lookups (Count)
system.cpu.branchPred.btb.lookups::DirectCond     21577504     64.40%     95.93% # Number of BTB lookups (Count)
system.cpu.branchPred.btb.lookups::DirectUncond      1083714      3.23%     99.17% # Number of BTB lookups (Count)
system.cpu.branchPred.btb.lookups::IndirectCond            0      0.00%     99.17% # Number of BTB lookups (Count)
system.cpu.branchPred.btb.lookups::IndirectUncond       278724      0.83%    100.00% # Number of BTB lookups (Count)
system.cpu.branchPred.btb.lookups::total     33505368                       # Number of BTB lookups (Count)
system.cpu.branchPred.btb.misses::NoBranch          379      0.00%      0.00% # Number of BTB misses (Count)
system.cpu.branchPred.btb.misses::Return      5051536     38.22%     38.22% # Number of BTB misses (Count)
system.cpu.branchPred.btb.misses::CallDirect        45667      0.35%     38.57% # Number of BTB misses (Count)
system.cpu.branchPred.btb.misses::CallIndirect        41647      0.32%     38.88% # Number of BTB misses (Count)
system.cpu.branchPred.btb.misses::DirectCond      7769163     58.78%     97.67% # Number of BTB misses (Count)
system.cpu.branchPred.btb.misses::DirectUncond        29691      0.22%     97.89% # Number of BTB misses (Count)
system.cpu.branchPred.btb.misses::IndirectCond            0      0.00%     97.89% # Number of BTB misses (Count)
system.cpu.branchPred.btb.misses::IndirectUncond       278724      2.11%    100.00% # Number of BTB misses (Count)
system.cpu.branchPred.btb.misses::total      13216807                       # Number of BTB misses (Count)
system.cpu.branchPred.btb.updates::NoBranch            0      0.00%      0.00% # Number of BTB updates (Count)
system.cpu.branchPred.btb.updates::Return            0      0.00%      0.00% # Number of BTB updates (Count)
system.cpu.branchPred.btb.updates::CallDirect        40364     14.64%     14.64% # Number of BTB updates (Count)
system.cpu.branchPred.btb.updates::CallIndirect            0      0.00%     14.64% # Number of BTB updates (Count)
system.cpu.branchPred.btb.updates::DirectCond       216874     78.66%     93.30% # Number of BTB updates (Count)
system.cpu.branchPred.btb.updates::DirectUncond        18471      6.70%    100.00% # Number of BTB updates (Count)
system.cpu.branchPred.btb.updates::IndirectCond            0      0.00%    100.00% # Number of BTB updates (Count)
system.cpu.branchPred.btb.updates::IndirectUncond            0      0.00%    100.00% # Number of BTB updates (Count)
system.cpu.branchPred.btb.updates::total       275709                       # Number of BTB updates (Count)
system.cpu.branchPred.btb.mispredict::NoBranch            0      0.00%      0.00% # Number of BTB mispredictions. No target found or target wrong. (Count)
system.cpu.branchPred.btb.mispredict::Return            0      0.00%      0.00% # Number of BTB mispredictions. No target found or target wrong. (Count)
system.cpu.branchPred.btb.mispredict::CallDirect        40364     14.64%     14.64% # Number of BTB mispredictions. No target found or target wrong. (Count)
system.cpu.branchPred.btb.mispredict::CallIndirect            0      0.00%     14.64% # Number of BTB mispredictions. No target found or target wrong. (Count)
system.cpu.branchPred.btb.mispredict::DirectCond       216874     78.66%     93.30% # Number of BTB mispredictions. No target found or target wrong. (Count)
system.cpu.branchPred.btb.mispredict::DirectUncond        18471      6.70%    100.00% # Number of BTB mispredictions. No target found or target wrong. (Count)
system.cpu.branchPred.btb.mispredict::IndirectCond            0      0.00%    100.00% # Number of BTB mispredictions. No target found or target wrong. (Count)
system.cpu.branchPred.btb.mispredict::IndirectUncond            0      0.00%    100.00% # Number of BTB mispredictions. No target found or target wrong. (Count)
system.cpu.branchPred.btb.mispredict::total       275709                       # Number of BTB mispredictions. No target found or target wrong. (Count)
system.cpu.branchPred.btb.power_state.pwrStateResidencyTicks::UNDEFINED 2021359118092                       # Cumulative time (in ticks) in various power states (Tick)
system.cpu.branchPred.indirectBranchPred.lookups       320371                       # Number of lookups (Count)
system.cpu.branchPred.indirectBranchPred.hits       260432                       # Number of hits of a tag (Count)
system.cpu.branchPred.indirectBranchPred.misses        59939                       # Number of misses (Count)
system.cpu.branchPred.indirectBranchPred.targetRecords        23995                       # Number of targets that where recorded/installed in the cache (Count)
system.cpu.branchPred.indirectBranchPred.indirectRecords       344366                       # Number of indirect branches/calls recorded in the indirect hist (Count)
system.cpu.branchPred.indirectBranchPred.speculativeOverflows            1                       # Number of times more than the allowed capacity for speculative branches/calls where in flight and destroy the path history (Count)
system.cpu.branchPred.ras.pushes              6889086                       # Number of times a PC was pushed onto the RAS (Count)
system.cpu.branchPred.ras.pops                6889080                       # Number of times a PC was poped from the RAS (Count)
system.cpu.branchPred.ras.squashes            3214877                       # Number of times the stack operation was squashed due to wrong speculation. (Count)
system.cpu.branchPred.ras.used                3674202                       # Number of times the RAS is the provider (Count)
system.cpu.branchPred.ras.correct             3661938                       # Number of times the RAS is the provider and the prediction is correct (Count)
system.cpu.branchPred.ras.incorrect             12264                       # Number of times the RAS is the provider and the prediction is wrong (Count)
system.cpu.commit.commitSquashedInsts        76549463                       # The number of squashed insts skipped by commit (Count)
system.cpu.commit.commitNonSpecStalls         3109903                       # The number of times commit has been forced to stall to communicate backwards (Count)
system.cpu.commit.branchMispredicts            565059                       # The number of times a branch was mispredicted (Count)
system.cpu.commit.numCommittedDist::samples    140863332                       # Number of insts commited each cycle (Count)
system.cpu.commit.numCommittedDist::mean     2.275079                       # Number of insts commited each cycle (Count)
system.cpu.commit.numCommittedDist::stdev     2.933044                       # Number of insts commited each cycle (Count)
system.cpu.commit.numCommittedDist::underflows            0      0.00%      0.00% # Number of insts commited each cycle (Count)
system.cpu.commit.numCommittedDist::0        64461376     45.76%     45.76% # Number of insts commited each cycle (Count)
system.cpu.commit.numCommittedDist::1        17564641     12.47%     58.23% # Number of insts commited each cycle (Count)
system.cpu.commit.numCommittedDist::2        12732543      9.04%     67.27% # Number of insts commited each cycle (Count)
system.cpu.commit.numCommittedDist::3         9504102      6.75%     74.02% # Number of insts commited each cycle (Count)
system.cpu.commit.numCommittedDist::4         5843422      4.15%     78.17% # Number of insts commited each cycle (Count)
system.cpu.commit.numCommittedDist::5         4657113      3.31%     81.47% # Number of insts commited each cycle (Count)
system.cpu.commit.numCommittedDist::6         2231364      1.58%     83.06% # Number of insts commited each cycle (Count)
system.cpu.commit.numCommittedDist::7         2064421      1.47%     84.52% # Number of insts commited each cycle (Count)
system.cpu.commit.numCommittedDist::8        21804350     15.48%    100.00% # Number of insts commited each cycle (Count)
system.cpu.commit.numCommittedDist::overflows            0      0.00%    100.00% # Number of insts commited each cycle (Count)
system.cpu.commit.numCommittedDist::min_value            0                       # Number of insts commited each cycle (Count)
system.cpu.commit.numCommittedDist::max_value            8                       # Number of insts commited each cycle (Count)
system.cpu.commit.numCommittedDist::total    140863332                       # Number of insts commited each cycle (Count)
system.cpu.commit.amos                              0                       # Number of atomic instructions committed (Count)
system.cpu.commit.membars                     2072732                       # Number of memory barriers committed (Count)
system.cpu.commit.functionCalls               3674207                       # Number of function calls committed. (Count)
system.cpu.commit.committedInstType_0::No_OpClass      4267461      1.33%      1.33% # Class of committed instruction (Count)
system.cpu.commit.committedInstType_0::IntAlu    228086880     71.17%     72.50% # Class of committed instruction (Count)
system.cpu.commit.committedInstType_0::IntMult      7222389      2.25%     74.76% # Class of committed instruction (Count)
system.cpu.commit.committedInstType_0::IntDiv       593864      0.19%     74.94% # Class of committed instruction (Count)
system.cpu.commit.committedInstType_0::FloatAdd        58149      0.02%     74.96% # Class of committed instruction (Count)
system.cpu.commit.committedInstType_0::FloatCmp            0      0.00%     74.96% # Class of committed instruction (Count)
system.cpu.commit.committedInstType_0::FloatCvt         1408      0.00%     74.96% # Class of committed instruction (Count)
system.cpu.commit.committedInstType_0::FloatMult            0      0.00%     74.96% # Class of committed instruction (Count)
system.cpu.commit.committedInstType_0::FloatMultAcc            0      0.00%     74.96% # Class of committed instruction (Count)
system.cpu.commit.committedInstType_0::FloatDiv            0      0.00%     74.96% # Class of committed instruction (Count)
system.cpu.commit.committedInstType_0::FloatMisc            0      0.00%     74.96% # Class of committed instruction (Count)
system.cpu.commit.committedInstType_0::FloatSqrt            0      0.00%     74.96% # Class of committed instruction (Count)
system.cpu.commit.committedInstType_0::SimdAdd         6950      0.00%     74.96% # Class of committed instruction (Count)
system.cpu.commit.committedInstType_0::SimdAddAcc            0      0.00%     74.96% # Class of committed instruction (Count)
system.cpu.commit.committedInstType_0::SimdAlu       141466      0.04%     75.01% # Class of committed instruction (Count)
system.cpu.commit.committedInstType_0::SimdCmp            6      0.00%     75.01% # Class of committed instruction (Count)
system.cpu.commit.committedInstType_0::SimdCvt        58690      0.02%     75.03% # Class of committed instruction (Count)
system.cpu.commit.committedInstType_0::SimdMisc       147689      0.05%     75.07% # Class of committed instruction (Count)
system.cpu.commit.committedInstType_0::SimdMult            0      0.00%     75.07% # Class of committed instruction (Count)
system.cpu.commit.committedInstType_0::SimdMultAcc            0      0.00%     75.07% # Class of committed instruction (Count)
system.cpu.commit.committedInstType_0::SimdMatMultAcc            0      0.00%     75.07% # Class of committed instruction (Count)
system.cpu.commit.committedInstType_0::SimdShift         1961      0.00%     75.07% # Class of committed instruction (Count)
system.cpu.commit.committedInstType_0::SimdShiftAcc            0      0.00%     75.07% # Class of committed instruction (Count)
system.cpu.commit.committedInstType_0::SimdDiv            0      0.00%     75.07% # Class of committed instruction (Count)
system.cpu.commit.committedInstType_0::SimdSqrt            0      0.00%     75.07% # Class of committed instruction (Count)
system.cpu.commit.committedInstType_0::SimdFloatAdd        16985      0.01%     75.08% # Class of committed instruction (Count)
system.cpu.commit.committedInstType_0::SimdFloatAlu            0      0.00%     75.08% # Class of committed instruction (Count)
system.cpu.commit.committedInstType_0::SimdFloatCmp            0      0.00%     75.08% # Class of committed instruction (Count)
system.cpu.commit.committedInstType_0::SimdFloatCvt        20074      0.01%     75.08% # Class of committed instruction (Count)
system.cpu.commit.committedInstType_0::SimdFloatDiv         3861      0.00%     75.08% # Class of committed instruction (Count)
system.cpu.commit.committedInstType_0::SimdFloatMisc            0      0.00%     75.08% # Class of committed instruction (Count)
system.cpu.commit.committedInstType_0::SimdFloatMult         9264      0.00%     75.09% # Class of committed instruction (Count)
system.cpu.commit.committedInstType_0::SimdFloatMultAcc            0      0.00%     75.09% # Class of committed instruction (Count)
system.cpu.commit.committedInstType_0::SimdFloatMatMultAcc            0      0.00%     75.09% # Class of committed instruction (Count)
system.cpu.commit.committedInstType_0::SimdFloatSqrt          772      0.00%     75.09% # Class of committed instruction (Count)
system.cpu.commit.committedInstType_0::SimdReduceAdd            0      0.00%     75.09% # Class of committed instruction (Count)
system.cpu.commit.committedInstType_0::SimdReduceAlu            0      0.00%     75.09% # Class of committed instruction (Count)
system.cpu.commit.committedInstType_0::SimdReduceCmp            0      0.00%     75.09% # Class of committed instruction (Count)
system.cpu.commit.committedInstType_0::SimdFloatReduceAdd            0      0.00%     75.09% # Class of committed instruction (Count)
system.cpu.commit.committedInstType_0::SimdFloatReduceCmp            0      0.00%     75.09% # Class of committed instruction (Count)
system.cpu.commit.committedInstType_0::SimdAes            0      0.00%     75.09% # Class of committed instruction (Count)
system.cpu.commit.committedInstType_0::SimdAesMix            0      0.00%     75.09% # Class of committed instruction (Count)
system.cpu.commit.committedInstType_0::SimdSha1Hash            0      0.00%     75.09% # Class of committed instruction (Count)
system.cpu.commit.committedInstType_0::SimdSha1Hash2            0      0.00%     75.09% # Class of committed instruction (Count)
system.cpu.commit.committedInstType_0::SimdSha256Hash            0      0.00%     75.09% # Class of committed instruction (Count)
system.cpu.commit.committedInstType_0::SimdSha256Hash2            0      0.00%     75.09% # Class of committed instruction (Count)
system.cpu.commit.committedInstType_0::SimdShaSigma2            0      0.00%     75.09% # Class of committed instruction (Count)
system.cpu.commit.committedInstType_0::SimdShaSigma3            0      0.00%     75.09% # Class of committed instruction (Count)
system.cpu.commit.committedInstType_0::SimdPredAlu            0      0.00%     75.09% # Class of committed instruction (Count)
system.cpu.commit.committedInstType_0::Matrix            0      0.00%     75.09% # Class of committed instruction (Count)
system.cpu.commit.committedInstType_0::MatrixMov            0      0.00%     75.09% # Class of committed instruction (Count)
system.cpu.commit.committedInstType_0::MatrixOP            0      0.00%     75.09% # Class of committed instruction (Count)
system.cpu.commit.committedInstType_0::MemRead     47665448     14.87%     89.96% # Class of committed instruction (Count)
system.cpu.commit.committedInstType_0::MemWrite     31337055      9.78%     99.74% # Class of committed instruction (Count)
system.cpu.commit.committedInstType_0::FloatMemRead       395461      0.12%     99.86% # Class of committed instruction (Count)
system.cpu.commit.committedInstType_0::FloatMemWrite       439384      0.14%    100.00% # Class of committed instruction (Count)
system.cpu.commit.committedInstType_0::IprAccess            0      0.00%    100.00% # Class of committed instruction (Count)
system.cpu.commit.committedInstType_0::InstPrefetch            0      0.00%    100.00% # Class of committed instruction (Count)
system.cpu.commit.committedInstType_0::SimdUnitStrideLoad            0      0.00%    100.00% # Class of committed instruction (Count)
system.cpu.commit.committedInstType_0::SimdUnitStrideStore            0      0.00%    100.00% # Class of committed instruction (Count)
system.cpu.commit.committedInstType_0::SimdUnitStrideMaskLoad            0      0.00%    100.00% # Class of committed instruction (Count)
system.cpu.commit.committedInstType_0::SimdUnitStrideMaskStore            0      0.00%    100.00% # Class of committed instruction (Count)
system.cpu.commit.committedInstType_0::SimdStridedLoad            0      0.00%    100.00% # Class of committed instruction (Count)
system.cpu.commit.committedInstType_0::SimdStridedStore            0      0.00%    100.00% # Class of committed instruction (Count)
system.cpu.commit.committedInstType_0::SimdIndexedLoad            0      0.00%    100.00% # Class of committed instruction (Count)
system.cpu.commit.committedInstType_0::SimdIndexedStore            0      0.00%    100.00% # Class of committed instruction (Count)
system.cpu.commit.committedInstType_0::SimdWholeRegisterLoad            0      0.00%    100.00% # Class of committed instruction (Count)
system.cpu.commit.committedInstType_0::SimdWholeRegisterStore            0      0.00%    100.00% # Class of committed instruction (Count)
system.cpu.commit.committedInstType_0::SimdUnitStrideFaultOnlyFirstLoad            0      0.00%    100.00% # Class of committed instruction (Count)
system.cpu.commit.committedInstType_0::SimdUnitStrideSegmentedLoad            0      0.00%    100.00% # Class of committed instruction (Count)
system.cpu.commit.committedInstType_0::SimdUnitStrideSegmentedStore            0      0.00%    100.00% # Class of committed instruction (Count)
system.cpu.commit.committedInstType_0::SimdExt            0      0.00%    100.00% # Class of committed instruction (Count)
system.cpu.commit.committedInstType_0::SimdFloatExt            0      0.00%    100.00% # Class of committed instruction (Count)
system.cpu.commit.committedInstType_0::SimdConfig            0      0.00%    100.00% # Class of committed instruction (Count)
system.cpu.commit.committedInstType_0::total    320475217                       # Class of committed instruction (Count)
system.cpu.commit.commitEligibleSamples      21804350                       # number cycles where commit BW limit reached (Cycle)
system.cpu.commitStats0.numInsts            191774025                       # Number of instructions committed (thread level) (Count)
system.cpu.commitStats0.numOps              320475217                       # Number of ops (including micro ops) committed (thread level) (Count)
system.cpu.commitStats0.numInstsNotNOP      191774025                       # Number of instructions committed excluding NOPs or prefetches (Count)
system.cpu.commitStats0.numOpsNotNOP        320475217                       # Number of Ops (including micro ops) Simulated (Count)
system.cpu.commitStats0.cpi                  0.790544                       # CPI: cycles per instruction (thread level) ((Cycle/Count))
system.cpu.commitStats0.ipc                  1.264952                       # IPC: instructions per cycle (thread level) ((Count/Cycle))
system.cpu.commitStats0.numMemRefs           79837348                       # Number of memory references committed (Count)
system.cpu.commitStats0.numFpInsts            1358191                       # Number of float instructions (Count)
system.cpu.commitStats0.numIntInsts         313445260                       # Number of integer instructions (Count)
system.cpu.commitStats0.numLoadInsts         48060909                       # Number of load instructions (Count)
system.cpu.commitStats0.numStoreInsts        31776439                       # Number of store instructions (Count)
system.cpu.commitStats0.numVecInsts                 0                       # Number of vector instructions (Count)
system.cpu.commitStats0.committedInstType::No_OpClass      4267461      1.33%      1.33% # Class of committed instruction. (Count)
system.cpu.commitStats0.committedInstType::IntAlu    228086880     71.17%     72.50% # Class of committed instruction. (Count)
system.cpu.commitStats0.committedInstType::IntMult      7222389      2.25%     74.76% # Class of committed instruction. (Count)
system.cpu.commitStats0.committedInstType::IntDiv       593864      0.19%     74.94% # Class of committed instruction. (Count)
system.cpu.commitStats0.committedInstType::FloatAdd        58149      0.02%     74.96% # Class of committed instruction. (Count)
system.cpu.commitStats0.committedInstType::FloatCmp            0      0.00%     74.96% # Class of committed instruction. (Count)
system.cpu.commitStats0.committedInstType::FloatCvt         1408      0.00%     74.96% # Class of committed instruction. (Count)
system.cpu.commitStats0.committedInstType::FloatMult            0      0.00%     74.96% # Class of committed instruction. (Count)
system.cpu.commitStats0.committedInstType::FloatMultAcc            0      0.00%     74.96% # Class of committed instruction. (Count)
system.cpu.commitStats0.committedInstType::FloatDiv            0      0.00%     74.96% # Class of committed instruction. (Count)
system.cpu.commitStats0.committedInstType::FloatMisc            0      0.00%     74.96% # Class of committed instruction. (Count)
system.cpu.commitStats0.committedInstType::FloatSqrt            0      0.00%     74.96% # Class of committed instruction. (Count)
system.cpu.commitStats0.committedInstType::SimdAdd         6950      0.00%     74.96% # Class of committed instruction. (Count)
system.cpu.commitStats0.committedInstType::SimdAddAcc            0      0.00%     74.96% # Class of committed instruction. (Count)
system.cpu.commitStats0.committedInstType::SimdAlu       141466      0.04%     75.01% # Class of committed instruction. (Count)
system.cpu.commitStats0.committedInstType::SimdCmp            6      0.00%     75.01% # Class of committed instruction. (Count)
system.cpu.commitStats0.committedInstType::SimdCvt        58690      0.02%     75.03% # Class of committed instruction. (Count)
system.cpu.commitStats0.committedInstType::SimdMisc       147689      0.05%     75.07% # Class of committed instruction. (Count)
system.cpu.commitStats0.committedInstType::SimdMult            0      0.00%     75.07% # Class of committed instruction. (Count)
system.cpu.commitStats0.committedInstType::SimdMultAcc            0      0.00%     75.07% # Class of committed instruction. (Count)
system.cpu.commitStats0.committedInstType::SimdMatMultAcc            0      0.00%     75.07% # Class of committed instruction. (Count)
system.cpu.commitStats0.committedInstType::SimdShift         1961      0.00%     75.07% # Class of committed instruction. (Count)
system.cpu.commitStats0.committedInstType::SimdShiftAcc            0      0.00%     75.07% # Class of committed instruction. (Count)
system.cpu.commitStats0.committedInstType::SimdDiv            0      0.00%     75.07% # Class of committed instruction. (Count)
system.cpu.commitStats0.committedInstType::SimdSqrt            0      0.00%     75.07% # Class of committed instruction. (Count)
system.cpu.commitStats0.committedInstType::SimdFloatAdd        16985      0.01%     75.08% # Class of committed instruction. (Count)
system.cpu.commitStats0.committedInstType::SimdFloatAlu            0      0.00%     75.08% # Class of committed instruction. (Count)
system.cpu.commitStats0.committedInstType::SimdFloatCmp            0      0.00%     75.08% # Class of committed instruction. (Count)
system.cpu.commitStats0.committedInstType::SimdFloatCvt        20074      0.01%     75.08% # Class of committed instruction. (Count)
system.cpu.commitStats0.committedInstType::SimdFloatDiv         3861      0.00%     75.08% # Class of committed instruction. (Count)
system.cpu.commitStats0.committedInstType::SimdFloatMisc            0      0.00%     75.08% # Class of committed instruction. (Count)
system.cpu.commitStats0.committedInstType::SimdFloatMult         9264      0.00%     75.09% # Class of committed instruction. (Count)
system.cpu.commitStats0.committedInstType::SimdFloatMultAcc            0      0.00%     75.09% # Class of committed instruction. (Count)
system.cpu.commitStats0.committedInstType::SimdFloatMatMultAcc            0      0.00%     75.09% # Class of committed instruction. (Count)
system.cpu.commitStats0.committedInstType::SimdFloatSqrt          772      0.00%     75.09% # Class of committed instruction. (Count)
system.cpu.commitStats0.committedInstType::SimdReduceAdd            0      0.00%     75.09% # Class of committed instruction. (Count)
system.cpu.commitStats0.committedInstType::SimdReduceAlu            0      0.00%     75.09% # Class of committed instruction. (Count)
system.cpu.commitStats0.committedInstType::SimdReduceCmp            0      0.00%     75.09% # Class of committed instruction. (Count)
system.cpu.commitStats0.committedInstType::SimdFloatReduceAdd            0      0.00%     75.09% # Class of committed instruction. (Count)
system.cpu.commitStats0.committedInstType::SimdFloatReduceCmp            0      0.00%     75.09% # Class of committed instruction. (Count)
system.cpu.commitStats0.committedInstType::SimdAes            0      0.00%     75.09% # Class of committed instruction. (Count)
system.cpu.commitStats0.committedInstType::SimdAesMix            0      0.00%     75.09% # Class of committed instruction. (Count)
system.cpu.commitStats0.committedInstType::SimdSha1Hash            0      0.00%     75.09% # Class of committed instruction. (Count)
system.cpu.commitStats0.committedInstType::SimdSha1Hash2            0      0.00%     75.09% # Class of committed instruction. (Count)
system.cpu.commitStats0.committedInstType::SimdSha256Hash            0      0.00%     75.09% # Class of committed instruction. (Count)
system.cpu.commitStats0.committedInstType::SimdSha256Hash2            0      0.00%     75.09% # Class of committed instruction. (Count)
system.cpu.commitStats0.committedInstType::SimdShaSigma2            0      0.00%     75.09% # Class of committed instruction. (Count)
system.cpu.commitStats0.committedInstType::SimdShaSigma3            0      0.00%     75.09% # Class of committed instruction. (Count)
system.cpu.commitStats0.committedInstType::SimdPredAlu            0      0.00%     75.09% # Class of committed instruction. (Count)
system.cpu.commitStats0.committedInstType::Matrix            0      0.00%     75.09% # Class of committed instruction. (Count)
system.cpu.commitStats0.committedInstType::MatrixMov            0      0.00%     75.09% # Class of committed instruction. (Count)
system.cpu.commitStats0.committedInstType::MatrixOP            0      0.00%     75.09% # Class of committed instruction. (Count)
system.cpu.commitStats0.committedInstType::MemRead     47665448     14.87%     89.96% # Class of committed instruction. (Count)
system.cpu.commitStats0.committedInstType::MemWrite     31337055      9.78%     99.74% # Class of committed instruction. (Count)
system.cpu.commitStats0.committedInstType::FloatMemRead       395461      0.12%     99.86% # Class of committed instruction. (Count)
system.cpu.commitStats0.committedInstType::FloatMemWrite       439384      0.14%    100.00% # Class of committed instruction. (Count)
system.cpu.commitStats0.committedInstType::IprAccess            0      0.00%    100.00% # Class of committed instruction. (Count)
system.cpu.commitStats0.committedInstType::InstPrefetch            0      0.00%    100.00% # Class of committed instruction. (Count)
system.cpu.commitStats0.committedInstType::SimdUnitStrideLoad            0      0.00%    100.00% # Class of committed instruction. (Count)
system.cpu.commitStats0.committedInstType::SimdUnitStrideStore            0      0.00%    100.00% # Class of committed instruction. (Count)
system.cpu.commitStats0.committedInstType::SimdUnitStrideMaskLoad            0      0.00%    100.00% # Class of committed instruction. (Count)
system.cpu.commitStats0.committedInstType::SimdUnitStrideMaskStore            0      0.00%    100.00% # Class of committed instruction. (Count)
system.cpu.commitStats0.committedInstType::SimdStridedLoad            0      0.00%    100.00% # Class of committed instruction. (Count)
system.cpu.commitStats0.committedInstType::SimdStridedStore            0      0.00%    100.00% # Class of committed instruction. (Count)
system.cpu.commitStats0.committedInstType::SimdIndexedLoad            0      0.00%    100.00% # Class of committed instruction. (Count)
system.cpu.commitStats0.committedInstType::SimdIndexedStore            0      0.00%    100.00% # Class of committed instruction. (Count)
system.cpu.commitStats0.committedInstType::SimdWholeRegisterLoad            0      0.00%    100.00% # Class of committed instruction. (Count)
system.cpu.commitStats0.committedInstType::SimdWholeRegisterStore            0      0.00%    100.00% # Class of committed instruction. (Count)
system.cpu.commitStats0.committedInstType::SimdUnitStrideFaultOnlyFirstLoad            0      0.00%    100.00% # Class of committed instruction. (Count)
system.cpu.commitStats0.committedInstType::SimdUnitStrideSegmentedLoad            0      0.00%    100.00% # Class of committed instruction. (Count)
system.cpu.commitStats0.committedInstType::SimdUnitStrideSegmentedStore            0      0.00%    100.00% # Class of committed instruction. (Count)
system.cpu.commitStats0.committedInstType::SimdExt            0      0.00%    100.00% # Class of committed instruction. (Count)
system.cpu.commitStats0.committedInstType::SimdFloatExt            0      0.00%    100.00% # Class of committed instruction. (Count)
system.cpu.commitStats0.committedInstType::SimdConfig            0      0.00%    100.00% # Class of committed instruction. (Count)
system.cpu.commitStats0.committedInstType::total    320475217                       # Class of committed instruction. (Count)
system.cpu.commitStats0.committedControl::IsControl     24013644                       # Class of control type instructions committed (Count)
system.cpu.commitStats0.committedControl::IsDirectControl     20090284                       # Class of control type instructions committed (Count)
system.cpu.commitStats0.committedControl::IsIndirectControl      3923079                       # Class of control type instructions committed (Count)
system.cpu.commitStats0.committedControl::IsCondControl     15706604                       # Class of control type instructions committed (Count)
system.cpu.commitStats0.committedControl::IsUncondControl      8306759                       # Class of control type instructions committed (Count)
system.cpu.commitStats0.committedControl::IsCall      3674207                       # Class of control type instructions committed (Count)
system.cpu.commitStats0.committedControl::IsReturn      3674202                       # Class of control type instructions committed (Count)
system.cpu.decode.idleCycles                 28650796                       # Number of cycles decode is idle (Cycle)
system.cpu.decode.blockedCycles              64950204                       # Number of cycles decode is blocked (Cycle)
system.cpu.decode.runCycles                  40497359                       # Number of cycles decode is running (Cycle)
system.cpu.decode.unblockCycles              15910705                       # Number of cycles decode is unblocking (Cycle)
system.cpu.decode.squashCycles                1334876                       # Number of cycles decode is squashing (Cycle)
system.cpu.decode.branchResolved             14929515                       # Number of times decode resolved a branch (Count)
system.cpu.decode.branchMispred                 66052                       # Number of times decode detected a branch misprediction (Count)
system.cpu.decode.decodedInsts              414301860                       # Number of instructions handled by decode (Count)
system.cpu.decode.squashedInsts                317332                       # Number of squashed instructions handled by decode (Count)
system.cpu.executeStats0.numInsts           364336534                       # Number of executed instructions (Count)
system.cpu.executeStats0.numNop                     0                       # Number of nop insts executed (Count)
system.cpu.executeStats0.numBranches         27323894                       # Number of branches executed (Count)
system.cpu.executeStats0.numLoadInsts        57250765                       # Number of load instructions executed (Count)
system.cpu.executeStats0.numStoreInsts       36293224                       # Number of stores executed (Count)
system.cpu.executeStats0.instRate            2.403185                       # Inst execution rate ((Count/Cycle))
system.cpu.executeStats0.numCCRegReads      113565985                       # Number of times the CC registers were read (Count)
system.cpu.executeStats0.numCCRegWrites     124228862                       # Number of times the CC registers were written (Count)
system.cpu.executeStats0.numFpRegReads        1457170                       # Number of times the floating registers were read (Count)
system.cpu.executeStats0.numFpRegWrites        947585                       # Number of times the floating registers were written (Count)
system.cpu.executeStats0.numIntRegReads     453769128                       # Number of times the integer registers were read (Count)
system.cpu.executeStats0.numIntRegWrites    279233606                       # Number of times the integer registers were written (Count)
system.cpu.executeStats0.numMemRefs          93543989                       # Number of memory refs (Count)
system.cpu.executeStats0.numMiscRegReads    145976516                       # Number of times the Misc registers were read (Count)
system.cpu.executeStats0.numMiscRegWrites          792                       # Number of times the Misc registers were written (Count)
system.cpu.executeStats0.numVecAluAccesses            0                       # Number of vector alu accesses (Count)
system.cpu.executeStats0.numDiscardedOps            0                       # Number of ops (including micro ops) which were discarded before commit (Count)
system.cpu.fetch.predictedBranches           21645193                       # Number of branches that fetch has predicted taken (Count)
system.cpu.fetch.cycles                     128740982                       # Number of cycles fetch has run and was not squashing or blocked (Cycle)
system.cpu.fetch.squashCycles                 2797090                       # Number of cycles fetch has spent squashing (Cycle)
system.cpu.fetch.miscStallCycles                  333                       # Number of cycles fetch has spent waiting on interrupts, or bad addresses, or out of MSHRs (Cycle)
system.cpu.fetch.pendingTrapStallCycles          3141                       # Number of stall cycles due to pending traps (Cycle)
system.cpu.fetch.cacheLines                  31351054                       # Number of cache lines fetched (Count)
[...]
system.mem_ctrl.dram.bwRead::total          348798004                       # Total read bandwidth from this memory ((Byte/Second))
system.mem_ctrl.dram.bwInstRead::cpu.inst    188361226                       # Instruction read bandwidth from this memory ((Byte/Second))
system.mem_ctrl.dram.bwInstRead::total      188361226                       # Instruction read bandwidth from this memory ((Byte/Second))
system.mem_ctrl.dram.bwWrite::writebacks     47193349                       # Write bandwidth from this memory ((Byte/Second))
system.mem_ctrl.dram.bwWrite::total          47193349                       # Write bandwidth from this memory ((Byte/Second))
system.mem_ctrl.dram.bwTotal::writebacks     47193349                       # Total bandwidth to/from this memory ((Byte/Second))
system.mem_ctrl.dram.bwTotal::cpu.inst      188361226                       # Total bandwidth to/from this memory ((Byte/Second))
system.mem_ctrl.dram.bwTotal::cpu.data      160436778                       # Total bandwidth to/from this memory ((Byte/Second))
system.mem_ctrl.dram.bwTotal::total         395991353                       # Total bandwidth to/from this memory ((Byte/Second))
system.mem_ctrl.dram.readBursts                  3132                       # Number of DRAM read bursts (Count)
system.mem_ctrl.dram.writeBursts                  338                       # Number of DRAM write bursts (Count)
system.mem_ctrl.dram.perBankRdBursts::0           193                       # Per bank write bursts (Count)
system.mem_ctrl.dram.perBankRdBursts::1           124                       # Per bank write bursts (Count)
system.mem_ctrl.dram.perBankRdBursts::2           122                       # Per bank write bursts (Count)
system.mem_ctrl.dram.perBankRdBursts::3           174                       # Per bank write bursts (Count)
system.mem_ctrl.dram.perBankRdBursts::4           230                       # Per bank write bursts (Count)
system.mem_ctrl.dram.perBankRdBursts::5           360                       # Per bank write bursts (Count)
system.mem_ctrl.dram.perBankRdBursts::6           306                       # Per bank write bursts (Count)
system.mem_ctrl.dram.perBankRdBursts::7           287                       # Per bank write bursts (Count)
system.mem_ctrl.dram.perBankRdBursts::8           111                       # Per bank write bursts (Count)
system.mem_ctrl.dram.perBankRdBursts::9            95                       # Per bank write bursts (Count)
system.mem_ctrl.dram.perBankRdBursts::10          204                       # Per bank write bursts (Count)
system.mem_ctrl.dram.perBankRdBursts::11          210                       # Per bank write bursts (Count)
system.mem_ctrl.dram.perBankRdBursts::12          118                       # Per bank write bursts (Count)
system.mem_ctrl.dram.perBankRdBursts::13          108                       # Per bank write bursts (Count)
system.mem_ctrl.dram.perBankRdBursts::14          386                       # Per bank write bursts (Count)
system.mem_ctrl.dram.perBankRdBursts::15          104                       # Per bank write bursts (Count)
system.mem_ctrl.dram.perBankWrBursts::0            11                       # Per bank write bursts (Count)
system.mem_ctrl.dram.perBankWrBursts::1             3                       # Per bank write bursts (Count)
system.mem_ctrl.dram.perBankWrBursts::2             1                       # Per bank write bursts (Count)
system.mem_ctrl.dram.perBankWrBursts::3            12                       # Per bank write bursts (Count)
system.mem_ctrl.dram.perBankWrBursts::4            10                       # Per bank write bursts (Count)
system.mem_ctrl.dram.perBankWrBursts::5            11                       # Per bank write bursts (Count)
system.mem_ctrl.dram.perBankWrBursts::6           147                       # Per bank write bursts (Count)
system.mem_ctrl.dram.perBankWrBursts::7            47                       # Per bank write bursts (Count)
system.mem_ctrl.dram.perBankWrBursts::8             0                       # Per bank write bursts (Count)
system.mem_ctrl.dram.perBankWrBursts::9             1                       # Per bank write bursts (Count)
system.mem_ctrl.dram.perBankWrBursts::10           43                       # Per bank write bursts (Count)
system.mem_ctrl.dram.perBankWrBursts::11           29                       # Per bank write bursts (Count)
system.mem_ctrl.dram.perBankWrBursts::12            6                       # Per bank write bursts (Count)
system.mem_ctrl.dram.perBankWrBursts::13            2                       # Per bank write bursts (Count)
system.mem_ctrl.dram.perBankWrBursts::14           15                       # Per bank write bursts (Count)
system.mem_ctrl.dram.perBankWrBursts::15            0                       # Per bank write bursts (Count)
system.mem_ctrl.dram.totQLat                 43885369                       # Total ticks spent queuing (Tick)
system.mem_ctrl.dram.totBusLat               15660000                       # Total ticks spent in databus transfers (Tick)
system.mem_ctrl.dram.totMemAccLat           102610369                       # Total ticks spent from burst creation until serviced by the DRAM (Tick)
system.mem_ctrl.dram.avgQLat                 14011.93                       # Average queueing delay per DRAM burst ((Tick/Count))
system.mem_ctrl.dram.avgBusLat                5000.00                       # Average bus latency per DRAM burst ((Tick/Count))
system.mem_ctrl.dram.avgMemAccLat            32761.93                       # Average memory access latency per DRAM burst ((Tick/Count))
system.mem_ctrl.dram.readRowHits                 1769                       # Number of row buffer hits during reads (Count)
system.mem_ctrl.dram.writeRowHits                 266                       # Number of row buffer hits during writes (Count)
system.mem_ctrl.dram.readRowHitRate             56.48                       # Row buffer hit rate for reads (Ratio)
system.mem_ctrl.dram.writeRowHitRate            78.70                       # Row buffer hit rate for writes (Ratio)
system.mem_ctrl.dram.bytesPerActivate::samples         1441                       # Bytes accessed per row activation (Byte)
system.mem_ctrl.dram.bytesPerActivate::mean   154.736988                       # Bytes accessed per row activation (Byte)
system.mem_ctrl.dram.bytesPerActivate::gmean   115.112763                       # Bytes accessed per row activation (Byte)
system.mem_ctrl.dram.bytesPerActivate::stdev   157.152485                       # Bytes accessed per row activation (Byte)
system.mem_ctrl.dram.bytesPerActivate::0-127          708     49.13%     49.13% # Bytes accessed per row activation (Byte)
system.mem_ctrl.dram.bytesPerActivate::128-255          484     33.59%     82.72% # Bytes accessed per row activation (Byte)
system.mem_ctrl.dram.bytesPerActivate::256-383          132      9.16%     91.88% # Bytes accessed per row activation (Byte)
system.mem_ctrl.dram.bytesPerActivate::384-511           51      3.54%     95.42% # Bytes accessed per row activation (Byte)
system.mem_ctrl.dram.bytesPerActivate::512-639           25      1.73%     97.15% # Bytes accessed per row activation (Byte)
system.mem_ctrl.dram.bytesPerActivate::640-767           15      1.04%     98.20% # Bytes accessed per row activation (Byte)
system.mem_ctrl.dram.bytesPerActivate::768-895            6      0.42%     98.61% # Bytes accessed per row activation (Byte)
system.mem_ctrl.dram.bytesPerActivate::896-1023            9      0.62%     99.24% # Bytes accessed per row activation (Byte)
system.mem_ctrl.dram.bytesPerActivate::1024-1151           11      0.76%    100.00% # Bytes accessed per row activation (Byte)
system.mem_ctrl.dram.bytesPerActivate::total         1441                       # Bytes accessed per row activation (Byte)
system.mem_ctrl.dram.dramBytesRead             200448                       # Total bytes read (Byte)
system.mem_ctrl.dram.dramBytesWritten           21632                       # Total bytes written (Byte)
system.mem_ctrl.dram.avgRdBW               322.728316                       # Average DRAM read bandwidth in MiBytes/s ((Byte/Second))
system.mem_ctrl.dram.avgWrBW                34.828279                       # Average DRAM write bandwidth in MiBytes/s ((Byte/Second))
system.mem_ctrl.dram.peakBW                  12800.00                       # Theoretical peak bandwidth in MiByte/s ((Byte/Second))
system.mem_ctrl.dram.busUtil                     2.79                       # Data bus utilization in percentage (Ratio)
system.mem_ctrl.dram.busUtilRead                 2.52                       # Data bus utilization in percentage for reads (Ratio)
system.mem_ctrl.dram.busUtilWrite                0.27                       # Data bus utilization in percentage for writes (Ratio)
system.mem_ctrl.dram.pageHitRate                58.65                       # Row buffer hit rate, read and write combined (Ratio)
system.mem_ctrl.dram.power_state.pwrStateResidencyTicks::UNDEFINED    621104472                       # Cumulative time (in ticks) in various power states (Tick)
system.mem_ctrl.dram.rank0.actEnergy          6376020                       # Energy for activate commands per rank (pJ) (Joule)
system.mem_ctrl.dram.rank0.preEnergy          3400320                       # Energy for precharge commands per rank (pJ) (Joule)
system.mem_ctrl.dram.rank0.readEnergy        12837720                       # Energy for read commands per rank (pJ) (Joule)
system.mem_ctrl.dram.rank0.writeEnergy        1263240                       # Energy for write commands per rank (pJ) (Joule)
system.mem_ctrl.dram.rank0.refreshEnergy 49171200.000000                       # Energy for refresh commands per rank (pJ) (Joule)
system.mem_ctrl.dram.rank0.actBackEnergy    264894390                       # Energy for active background per rank (pJ) (Joule)
system.mem_ctrl.dram.rank0.preBackEnergy     15434880                       # Energy for precharge background per rank (pJ) (Joule)
system.mem_ctrl.dram.rank0.actPowerDownEnergy            0                       # Energy for active power-down per rank (pJ) (Joule)
system.mem_ctrl.dram.rank0.prePowerDownEnergy            0                       # Energy for precharge power-down per rank (pJ) (Joule)
system.mem_ctrl.dram.rank0.selfRefreshEnergy            0                       # Energy for self refresh per rank (pJ) (Joule)
system.mem_ctrl.dram.rank0.totalEnergy      353377770                       # Total energy per rank (pJ) (Joule)
system.mem_ctrl.dram.rank0.averagePower    568.950613                       # Core power per rank (mW) (Watt)
system.mem_ctrl.dram.rank0.totalIdleTime            0                       # Total Idle time Per DRAM Rank (Tick)
system.mem_ctrl.dram.rank0.pwrStateTime::IDLE     37864605                       # Time in different power states (Tick)
system.mem_ctrl.dram.rank0.pwrStateTime::REF     20800000                       # Time in different power states (Tick)
system.mem_ctrl.dram.rank0.pwrStateTime::SREF            0                       # Time in different power states (Tick)
system.mem_ctrl.dram.rank0.pwrStateTime::PRE_PDN            0                       # Time in different power states (Tick)
system.mem_ctrl.dram.rank0.pwrStateTime::ACT    562439867                       # Time in different power states (Tick)
system.mem_ctrl.dram.rank0.pwrStateTime::ACT_PDN            0                       # Time in different power states (Tick)
system.mem_ctrl.dram.rank1.actEnergy          3869880                       # Energy for activate commands per rank (pJ) (Joule)
system.mem_ctrl.dram.rank1.preEnergy          2068275                       # Energy for precharge commands per rank (pJ) (Joule)
system.mem_ctrl.dram.rank1.readEnergy         9539040                       # Energy for read commands per rank (pJ) (Joule)
system.mem_ctrl.dram.rank1.writeEnergy         501120                       # Energy for write commands per rank (pJ) (Joule)
system.mem_ctrl.dram.rank1.refreshEnergy 49171200.000000                       # Energy for refresh commands per rank (pJ) (Joule)
system.mem_ctrl.dram.rank1.actBackEnergy    259464000                       # Energy for active background per rank (pJ) (Joule)
system.mem_ctrl.dram.rank1.preBackEnergy     20007840                       # Energy for precharge background per rank (pJ) (Joule)
system.mem_ctrl.dram.rank1.actPowerDownEnergy            0                       # Energy for active power-down per rank (pJ) (Joule)
system.mem_ctrl.dram.rank1.prePowerDownEnergy            0                       # Energy for precharge power-down per rank (pJ) (Joule)
system.mem_ctrl.dram.rank1.selfRefreshEnergy            0                       # Energy for self refresh per rank (pJ) (Joule)
system.mem_ctrl.dram.rank1.totalEnergy      344621355                       # Total energy per rank (pJ) (Joule)
system.mem_ctrl.dram.rank1.averagePower    554.852477                       # Core power per rank (mW) (Watt)
system.mem_ctrl.dram.rank1.totalIdleTime            0                       # Total Idle time Per DRAM Rank (Tick)
system.mem_ctrl.dram.rank1.pwrStateTime::IDLE     49777365                       # Time in different power states (Tick)
system.mem_ctrl.dram.rank1.pwrStateTime::REF     20800000                       # Time in different power states (Tick)
system.mem_ctrl.dram.rank1.pwrStateTime::SREF            0                       # Time in different power states (Tick)
system.mem_ctrl.dram.rank1.pwrStateTime::PRE_PDN            0                       # Time in different power states (Tick)
system.mem_ctrl.dram.rank1.pwrStateTime::ACT    550527107                       # Time in different power states (Tick)
system.mem_ctrl.dram.rank1.pwrStateTime::ACT_PDN            0                       # Time in different power states (Tick)
system.mem_ctrl.power_state.pwrStateResidencyTicks::UNDEFINED    621104472                       # Cumulative time (in ticks) in various power states (Tick)
system.membus.transDist::ReadResp                3217                       # Transaction distribution (Count)
system.membus.transDist::WritebackDirty           458                       # Transaction distribution (Count)
system.membus.transDist::CleanEvict              2928                       # Transaction distribution (Count)
system.membus.transDist::UpgradeReq                 1                       # Transaction distribution (Count)
system.membus.transDist::ReadExReq                170                       # Transaction distribution (Count)
system.membus.transDist::ReadExResp               170                       # Transaction distribution (Count)
system.membus.transDist::ReadSharedReq           3214                       # Transaction distribution (Count)
system.membus.pktCount_system.cpu.l1d.mem_side_port::system.mem_ctrl.port         4671                       # Packet count per connected requestor and responder (Count)
system.membus.pktCount_system.cpu.l1d.mem_side_port::total         4671                       # Packet count per connected requestor and responder (Count)
system.membus.pktCount_system.cpu.l1i.mem_side_port::system.mem_ctrl.port         5486                       # Packet count per connected requestor and responder (Count)
system.membus.pktCount_system.cpu.l1i.mem_side_port::total         5486                       # Packet count per connected requestor and responder (Count)
system.membus.pktCount::total                   10157                       # Packet count per connected requestor and responder (Count)
system.membus.pktSize_system.cpu.l1d.mem_side_port::system.mem_ctrl.port       128960                       # Cumulative packet size per connected requestor and responder (Byte)
system.membus.pktSize_system.cpu.l1d.mem_side_port::total       128960                       # Cumulative packet size per connected requestor and responder (Byte)
system.membus.pktSize_system.cpu.l1i.mem_side_port::system.mem_ctrl.port       117056                       # Cumulative packet size per connected requestor and responder (Byte)
system.membus.pktSize_system.cpu.l1i.mem_side_port::total       117056                       # Cumulative packet size per connected requestor and responder (Byte)
system.membus.pktSize::total                   246016                       # Cumulative packet size per connected requestor and responder (Byte)
system.membus.snoops                                1                       # Total snoops (Count)
system.membus.snoopTraffic                         64                       # Total snoop traffic (Byte)
system.membus.snoopFanout::samples               3385                       # Request fanout histogram (Count)
system.membus.snoopFanout::mean              0.005908                       # Request fanout histogram (Count)
system.membus.snoopFanout::stdev             0.076650                       # Request fanout histogram (Count)
system.membus.snoopFanout::underflows               0      0.00%      0.00% # Request fanout histogram (Count)
system.membus.snoopFanout::0                     3365     99.41%     99.41% # Request fanout histogram (Count)
system.membus.snoopFanout::1                       20      0.59%    100.00% # Request fanout histogram (Count)
system.membus.snoopFanout::2                        0      0.00%    100.00% # Request fanout histogram (Count)
system.membus.snoopFanout::overflows                0      0.00%    100.00% # Request fanout histogram (Count)
system.membus.snoopFanout::min_value                0                       # Request fanout histogram (Count)
system.membus.snoopFanout::max_value                1                       # Request fanout histogram (Count)
system.membus.snoopFanout::total                 3385                       # Request fanout histogram (Count)
system.membus.power_state.pwrStateResidencyTicks::UNDEFINED    621104472                       # Cumulative time (in ticks) in various power states (Tick)
system.membus.reqLayer2.occupancy           114703799                       # Layer occupancy (ticks) (Tick)
system.membus.reqLayer2.utilization               0.2                       # Layer utilization (Ratio)
system.membus.respLayer2.occupancy          105513981                       # Layer occupancy (ticks) (Tick)
system.membus.respLayer2.utilization              0.2                       # Layer utilization (Ratio)
system.membus.respLayer3.occupancy          125222933                       # Layer occupancy (ticks) (Tick)
system.membus.respLayer3.utilization              0.2                       # Layer utilization (Ratio)
system.membus.snoop_filter.totRequests           6771                       # Total number of requests made to the snoop filter. (Count)
system.membus.snoop_filter.hitSingleRequests         3387                       # Number of requests hitting in the snoop filter with a single holder of the requested data. (Count)
system.membus.snoop_filter.hitMultiRequests           19                       # Number of requests hitting in the snoop filter with multiple (>1) holders of the requested data. (Count)
system.membus.snoop_filter.totSnoops                0                       # Total number of snoops made to the snoop filter. (Count)
system.membus.snoop_filter.hitSingleSnoops            0                       # Number of snoops hitting in the snoop filter with a single holder of the requested data. (Count)
system.membus.snoop_filter.hitMultiSnoops            0                       # Number of snoops hitting in the snoop filter with multiple (>1) holders of the requested data. (Count)
system.workload.inst.arm                            0                       # number of arm instructions executed (Count)
system.workload.inst.quiesce                        0                       # number of quiesce instructions executed (Count)

---------- End Simulation Statistics   ----------
