
---------- Begin Simulation Statistics ----------
simSeconds                                   2.021746                       # Number of seconds simulated (Second)
simTicks                                 2021745561764                       # Number of ticks simulated (Tick)
finalTick                                2021745561764                       # Number of ticks from beginning of simulation (restored from checkpoints and never reset) (Tick)
simFreq                                  1000000000000                       # The number of ticks per simulated second ((Tick/Second))
hostSeconds                                   1722.84                       # Real time elapsed on the host (Second)
hostTickRate                               1173494559                       # The number of ticks simulated per host second (ticks/s) ((Tick/Second))
hostMemory                                    8707328                       # Number of bytes of host memory used (Byte)
simInsts                                    225878650                       # Number of instructions simulated (Count)
simOps                                      382734190                       # Number of ops (including micro ops) simulated (Count)
hostInstRate                                   131108                       # Simulator instruction rate (inst/s) ((Count/Second))
hostOpRate                                     222153                       # Simulator op (including micro ops) rate (op/s) ((Count/Second))
system.clk_domain.clock                         13333                       # Clock period in ticks (Tick)
system.clk_domain.voltage_domain.voltage            1                       # Voltage in Volts (Volt)
system.cpu.numCycles                        151634709                       # Number of cpu cycles simulated (Cycle)
system.cpu.cpi                               0.671310                       # CPI: cycles per instruction (core level) ((Cycle/Count))
system.cpu.ipc                               1.489624                       # IPC: instructions per cycle (core level) ((Count/Cycle))
system.cpu.numWorkItemsStarted                      0                       # Number of work items this cpu started (Count)
system.cpu.numWorkItemsCompleted                    0                       # Number of work items this cpu completed (Count)
system.cpu.instsAdded                       460198726                       # Number of instructions added to the IQ (excludes non-spec) (Count)
system.cpu.nonSpecInstsAdded                     3186                       # Number of non-speculative instructions added to the IQ (Count)
system.cpu.instsIssued                      436547469                       # Number of instructions issued (Count)
system.cpu.squashedInstsIssued                 950839                       # Number of squashed instructions issued (Count)
system.cpu.squashedInstsExamined             77467701                       # Number of squashed instructions iterated over during squash; mainly for profiling (Count)
system.cpu.squashedOperandsExamined         131896064                       # Number of squashed operands that are examined and possibly removed from graph (Count)
system.cpu.squashedNonSpecRemoved                 283                       # Number of squashed non-spec instructions that were removed (Count)
system.cpu.numIssuedDist::samples           151270657                       # Number of insts issued each cycle (Count)
system.cpu.numIssuedDist::mean               2.885870                       # Number of insts issued each cycle (Count)
system.cpu.numIssuedDist::stdev              2.832887                       # Number of insts issued each cycle (Count)
system.cpu.numIssuedDist::underflows                0      0.00%      0.00% # Number of insts issued each cycle (Count)
system.cpu.numIssuedDist::0                  58298121     38.54%     38.54% # Number of insts issued each cycle (Count)
system.cpu.numIssuedDist::1                   8832366      5.84%     44.38% # Number of insts issued each cycle (Count)
system.cpu.numIssuedDist::2                   9330526      6.17%     50.55% # Number of insts issued each cycle (Count)
system.cpu.numIssuedDist::3                   9757945      6.45%     57.00% # Number of insts issued each cycle (Count)
system.cpu.numIssuedDist::4                  13405878      8.86%     65.86% # Number of insts issued each cycle (Count)
system.cpu.numIssuedDist::5                  16972598     11.22%     77.08% # Number of insts issued each cycle (Count)
system.cpu.numIssuedDist::6                  11656733      7.71%     84.78% # Number of insts issued each cycle (Count)
system.cpu.numIssuedDist::7                  12778604      8.45%     93.23% # Number of insts issued each cycle (Count)
system.cpu.numIssuedDist::8                  10237886      6.77%    100.00% # Number of insts issued each cycle (Count)
system.cpu.numIssuedDist::overflows                 0      0.00%    100.00% # Number of insts issued each cycle (Count)
system.cpu.numIssuedDist::min_value                 0                       # Number of insts issued each cycle (Count)
system.cpu.numIssuedDist::max_value                 8                       # Number of insts issued each cycle (Count)
system.cpu.numIssuedDist::total             151270657                       # Number of insts issued each cycle (Count)
system.cpu.statFuBusy::No_OpClass                   0      0.00%      0.00% # attempts to use FU when none available (Count)
system.cpu.statFuBusy::IntAlu                 6990065     96.80%     96.80% # attempts to use FU when none available (Count)
system.cpu.statFuBusy::IntMult                      0      0.00%     96.80% # attempts to use FU when none available (Count)
system.cpu.statFuBusy::IntDiv                       0      0.00%     96.80% # attempts to use FU when none available (Count)
system.cpu.statFuBusy::FloatAdd                     0      0.00%     96.80% # attempts to use FU when none available (Count)
system.cpu.statFuBusy::FloatCmp                     0      0.00%     96.80% # attempts to use FU when none available (Count)
system.cpu.statFuBusy::FloatCvt                     0      0.00%     96.80% # attempts to use FU when none available (Count)
system.cpu.statFuBusy::FloatMult                    0      0.00%     96.80% # attempts to use FU when none available (Count)
system.cpu.statFuBusy::FloatMultAcc                 0      0.00%     96.80% # attempts to use FU when none available (Count)
system.cpu.statFuBusy::FloatDiv                     0      0.00%     96.80% # attempts to use FU when none available (Count)
system.cpu.statFuBusy::FloatMisc                    0      0.00%     96.80% # attempts to use FU when none available (Count)
system.cpu.statFuBusy::FloatSqrt                    0      0.00%     96.80% # attempts to use FU when none available (Count)
system.cpu.statFuBusy::SimdAdd                      0      0.00%     96.80% # attempts to use FU when none available (Count)
system.cpu.statFuBusy::SimdAddAcc                   0      0.00%     96.80% # attempts to use FU when none available (Count)
system.cpu.statFuBusy::SimdAlu                  67370      0.93%     97.74% # attempts to use FU when none available (Count)
system.cpu.statFuBusy::SimdCmp                      0      0.00%     97.74% # attempts to use FU when none available (Count)
system.cpu.statFuBusy::SimdCvt                    214      0.00%     97.74% # attempts to use FU when none available (Count)
system.cpu.statFuBusy::SimdMisc                    16      0.00%     97.74% # attempts to use FU when none available (Count)
system.cpu.statFuBusy::SimdMult                     0      0.00%     97.74% # attempts to use FU when none available (Count)
system.cpu.statFuBusy::SimdMultAcc                  0      0.00%     97.74% # attempts to use FU when none available (Count)
system.cpu.statFuBusy::SimdMatMultAcc               0      0.00%     97.74% # attempts to use FU when none available (Count)
system.cpu.statFuBusy::SimdShift                   32      0.00%     97.74% # attempts to use FU when none available (Count)
system.cpu.statFuBusy::SimdShiftAcc                 0      0.00%     97.74% # attempts to use FU when none available (Count)
system.cpu.statFuBusy::SimdDiv                      0      0.00%     97.74% # attempts to use FU when none available (Count)
system.cpu.statFuBusy::SimdSqrt                     0      0.00%     97.74% # attempts to use FU when none available (Count)
system.cpu.statFuBusy::SimdFloatAdd                 0      0.00%     97.74% # attempts to use FU when none available (Count)
system.cpu.statFuBusy::SimdFloatAlu                 0      0.00%     97.74% # attempts to use FU when none available (Count)
system.cpu.statFuBusy::SimdFloatCmp                 0      0.00%     97.74% # attempts to use FU when none available (Count)
system.cpu.statFuBusy::SimdFloatCvt                 0      0.00%     97.74% # attempts to use FU when none available (Count)
system.cpu.statFuBusy::SimdFloatDiv                 0      0.00%     97.74% # attempts to use FU when none available (Count)
system.cpu.statFuBusy::SimdFloatMisc                0      0.00%     97.74% # attempts to use FU when none available (Count)
system.cpu.statFuBusy::SimdFloatMult                0      0.00%     97.74% # attempts to use FU when none available (Count)
system.cpu.statFuBusy::SimdFloatMultAcc             0      0.00%     97.74% # attempts to use FU when none available (Count)
system.cpu.statFuBusy::SimdFloatMatMultAcc            0      0.00%     97.74% # attempts to use FU when none available (Count)
system.cpu.statFuBusy::SimdFloatSqrt                0      0.00%     97.74% # attempts to use FU when none available (Count)
system.cpu.statFuBusy::SimdReduceAdd                0      0.00%     97.74% # attempts to use FU when none available (Count)
system.cpu.statFuBusy::SimdReduceAlu                0      0.00%     97.74% # attempts to use FU when none available (Count)
system.cpu.statFuBusy::SimdReduceCmp                0      0.00%     97.74% # attempts to use FU when none available (Count)
system.cpu.statFuBusy::SimdFloatReduceAdd            0      0.00%     97.74% # attempts to use FU when none available (Count)
system.cpu.statFuBusy::SimdFloatReduceCmp            0      0.00%     97.74% # attempts to use FU when none available (Count)
system.cpu.statFuBusy::SimdAes                      0      0.00%     97.74% # attempts to use FU when none available (Count)
system.cpu.statFuBusy::SimdAesMix                   0      0.00%     97.74% # attempts to use FU when none available (Count)
system.cpu.statFuBusy::SimdSha1Hash                 0      0.00%     97.74% # attempts to use FU when none available (Count)
system.cpu.statFuBusy::SimdSha1Hash2                0      0.00%     97.74% # attempts to use FU when none available (Count)
system.cpu.statFuBusy::SimdSha256Hash               0      0.00%     97.74% # attempts to use FU when none available (Count)
system.cpu.statFuBusy::SimdSha256Hash2              0      0.00%     97.74% # attempts to use FU when none available (Count)
system.cpu.statFuBusy::SimdShaSigma2                0      0.00%     97.74% # attempts to use FU when none available (Count)
system.cpu.statFuBusy::SimdShaSigma3                0      0.00%     97.74% # attempts to use FU when none available (Count)
system.cpu.statFuBusy::SimdPredAlu                  0      0.00%     97.74% # attempts to use FU when none available (Count)
system.cpu.statFuBusy::Matrix                       0      0.00%     97.74% # attempts to use FU when none available (Count)
system.cpu.statFuBusy::MatrixMov                    0      0.00%     97.74% # attempts to use FU when none available (Count)
system.cpu.statFuBusy::MatrixOP                     0      0.00%     97.74% # attempts to use FU when none available (Count)
system.cpu.statFuBusy::MemRead                  82768      1.15%     98.89% # attempts to use FU when none available (Count)
system.cpu.statFuBusy::MemWrite                 79340      1.10%     99.99% # attempts to use FU when none available (Count)
system.cpu.statFuBusy::FloatMemRead               568      0.01%     99.99% # attempts to use FU when none available (Count)
system.cpu.statFuBusy::FloatMemWrite              413      0.01%    100.00% # attempts to use FU when none available (Count)
system.cpu.statFuBusy::IprAccess                    0      0.00%    100.00% # attempts to use FU when none available (Count)
system.cpu.statFuBusy::InstPrefetch                 0      0.00%    100.00% # attempts to use FU when none available (Count)
system.cpu.statFuBusy::SimdUnitStrideLoad            0      0.00%    100.00% # attempts to use FU when none available (Count)
system.cpu.statFuBusy::SimdUnitStrideStore            0      0.00%    100.00% # attempts to use FU when none available (Count)
system.cpu.statFuBusy::SimdUnitStrideMaskLoad            0      0.00%    100.00% # attempts to use FU when none available (Count)
system.cpu.statFuBusy::SimdUnitStrideMaskStore            0      0.00%    100.00% # attempts to use FU when none available (Count)
system.cpu.statFuBusy::SimdStridedLoad              0      0.00%    100.00% # attempts to use FU when none available (Count)
system.cpu.statFuBusy::SimdStridedStore             0      0.00%    100.00% # attempts to use FU when none available (Count)
system.cpu.statFuBusy::SimdIndexedLoad              0      0.00%    100.00% # attempts to use FU when none available (Count)
system.cpu.statFuBusy::SimdIndexedStore             0      0.00%    100.00% # attempts to use FU when none available (Count)
system.cpu.statFuBusy::SimdWholeRegisterLoad            0      0.00%    100.00% # attempts to use FU when none available (Count)
system.cpu.statFuBusy::SimdWholeRegisterStore            0      0.00%    100.00% # attempts to use FU when none available (Count)
system.cpu.statFuBusy::SimdUnitStrideFaultOnlyFirstLoad            0      0.00%    100.00% # attempts to use FU when none available (Count)
system.cpu.statFuBusy::SimdUnitStrideSegmentedLoad            0      0.00%    100.00% # attempts to use FU when none available (Count)
system.cpu.statFuBusy::SimdUnitStrideSegmentedStore            0      0.00%    100.00% # attempts to use FU when none available (Count)
system.cpu.statFuBusy::SimdExt                      0      0.00%    100.00% # attempts to use FU when none available (Count)
system.cpu.statFuBusy::SimdFloatExt                 0      0.00%    100.00% # attempts to use FU when none available (Count)
system.cpu.statFuBusy::SimdConfig                   0      0.00%    100.00% # attempts to use FU when none available (Count)
system.cpu.statIssuedInstType_0::No_OpClass      7967925      1.83%      1.83% # Number of instructions issued per FU type, per thread (Count)
system.cpu.statIssuedInstType_0::IntAlu     338501667     77.54%     79.37% # Number of instructions issued per FU type, per thread (Count)
system.cpu.statIssuedInstType_0::IntMult       471159      0.11%     79.47% # Number of instructions issued per FU type, per thread (Count)
system.cpu.statIssuedInstType_0::IntDiv         43393      0.01%     79.48% # Number of instructions issued per FU type, per thread (Count)
system.cpu.statIssuedInstType_0::FloatAdd       345478      0.08%     79.56% # Number of instructions issued per FU type, per thread (Count)
system.cpu.statIssuedInstType_0::FloatCmp            0      0.00%     79.56% # Number of instructions issued per FU type, per thread (Count)
system.cpu.statIssuedInstType_0::FloatCvt         1359      0.00%     79.56% # Number of instructions issued per FU type, per thread (Count)
system.cpu.statIssuedInstType_0::FloatMult            0      0.00%     79.56% # Number of instructions issued per FU type, per thread (Count)
system.cpu.statIssuedInstType_0::FloatMultAcc            0      0.00%     79.56% # Number of instructions issued per FU type, per thread (Count)
system.cpu.statIssuedInstType_0::FloatDiv            0      0.00%     79.56% # Number of instructions issued per FU type, per thread (Count)
system.cpu.statIssuedInstType_0::FloatMisc            0      0.00%     79.56% # Number of instructions issued per FU type, per thread (Count)
system.cpu.statIssuedInstType_0::FloatSqrt            0      0.00%     79.56% # Number of instructions issued per FU type, per thread (Count)
system.cpu.statIssuedInstType_0::SimdAdd         7358      0.00%     79.56% # Number of instructions issued per FU type, per thread (Count)
system.cpu.statIssuedInstType_0::SimdAddAcc            0      0.00%     79.56% # Number of instructions issued per FU type, per thread (Count)
system.cpu.statIssuedInstType_0::SimdAlu       824616      0.19%     79.75% # Number of instructions issued per FU type, per thread (Count)
system.cpu.statIssuedInstType_0::SimdCmp            6      0.00%     79.75% # Number of instructions issued per FU type, per thread (Count)
system.cpu.statIssuedInstType_0::SimdCvt       150618      0.03%     79.79% # Number of instructions issued per FU type, per thread (Count)
system.cpu.statIssuedInstType_0::SimdMisc       283856      0.07%     79.85% # Number of instructions issued per FU type, per thread (Count)
system.cpu.statIssuedInstType_0::SimdMult            0      0.00%     79.85% # Number of instructions issued per FU type, per thread (Count)
system.cpu.statIssuedInstType_0::SimdMultAcc            0      0.00%     79.85% # Number of instructions issued per FU type, per thread (Count)
system.cpu.statIssuedInstType_0::SimdMatMultAcc            0      0.00%     79.85% # Number of instructions issued per FU type, per thread (Count)
system.cpu.statIssuedInstType_0::SimdShift         3901      0.00%     79.85% # Number of instructions issued per FU type, per thread (Count)
system.cpu.statIssuedInstType_0::SimdShiftAcc            0      0.00%     79.85% # Number of instructions issued per FU type, per thread (Count)
system.cpu.statIssuedInstType_0::SimdDiv            0      0.00%     79.85% # Number of instructions issued per FU type, per thread (Count)
system.cpu.statIssuedInstType_0::SimdSqrt            0      0.00%     79.85% # Number of instructions issued per FU type, per thread (Count)
system.cpu.statIssuedInstType_0::SimdFloatAdd        67261      0.02%     79.87% # Number of instructions issued per FU type, per thread (Count)
system.cpu.statIssuedInstType_0::SimdFloatAlu            0      0.00%     79.87% # Number of instructions issued per FU type, per thread (Count)
system.cpu.statIssuedInstType_0::SimdFloatCmp            0      0.00%     79.87% # Number of instructions issued per FU type, per thread (Count)
system.cpu.statIssuedInstType_0::SimdFloatCvt       201760      0.05%     79.92% # Number of instructions issued per FU type, per thread (Count)
system.cpu.statIssuedInstType_0::SimdFloatDiv        67261      0.02%     79.93% # Number of instructions issued per FU type, per thread (Count)
system.cpu.statIssuedInstType_0::SimdFloatMisc            0      0.00%     79.93% # Number of instructions issued per FU type, per thread (Count)
system.cpu.statIssuedInstType_0::SimdFloatMult            0      0.00%     79.93% # Number of instructions issued per FU type, per thread (Count)
system.cpu.statIssuedInstType_0::SimdFloatMultAcc            0      0.00%     79.93% # Number of instructions issued per FU type, per thread (Count)
system.cpu.statIssuedInstType_0::SimdFloatMatMultAcc            0      0.00%     79.93% # Number of instructions issued per FU type, per thread (Count)
system.cpu.statIssuedInstType_0::SimdFloatSqrt            0      0.00%     79.93% # Number of instructions issued per FU type, per thread (Count)
system.cpu.statIssuedInstType_0::SimdReduceAdd            0      0.00%     79.93% # Number of instructions issued per FU type, per thread (Count)
system.cpu.statIssuedInstType_0::SimdReduceAlu            0      0.00%     79.93% # Number of instructions issued per FU type, per thread (Count)
system.cpu.statIssuedInstType_0::SimdReduceCmp            0      0.00%     79.93% # Number of instructions issued per FU type, per thread (Count)
system.cpu.statIssuedInstType_0::SimdFloatReduceAdd            0      0.00%     79.93% # Number of instructions issued per FU type, per thread (Count)
system.cpu.statIssuedInstType_0::SimdFloatReduceCmp            0      0.00%     79.93% # Number of instructions issued per FU type, per thread (Count)
system.cpu.statIssuedInstType_0::SimdAes            0      0.00%     79.93% # Number of instructions issued per FU type, per thread (Count)
system.cpu.statIssuedInstType_0::SimdAesMix            0      0.00%     79.93% # Number of instructions issued per FU type, per thread (Count)
system.cpu.statIssuedInstType_0::SimdSha1Hash            0      0.00%     79.93% # Number of instructions issued per FU type, per thread (Count)
system.cpu.statIssuedInstType_0::SimdSha1Hash2            0      0.00%     79.93% # Number of instructions issued per FU type, per thread (Count)
system.cpu.statIssuedInstType_0::SimdSha256Hash            0      0.00%     79.93% # Number of instructions issued per FU type, per thread (Count)
system.cpu.statIssuedInstType_0::SimdSha256Hash2            0      0.00%     79.93% # Number of instructions issued per FU type, per thread (Count)
system.cpu.statIssuedInstType_0::SimdShaSigma2            0      0.00%     79.93% # Number of instructions issued per FU type, per thread (Count)
system.cpu.statIssuedInstType_0::SimdShaSigma3            0      0.00%     79.93% # Number of instructions issued per FU type, per thread (Count)
system.cpu.statIssuedInstType_0::SimdPredAlu            0      0.00%     79.93% # Number of instructions issued per FU type, per thread (Count)
system.cpu.statIssuedInstType_0::Matrix             0      0.00%     79.93% # Number of instructions issued per FU type, per thread (Count)
system.cpu.statIssuedInstType_0::MatrixMov            0      0.00%     79.93% # Number of instructions issued per FU type, per thread (Count)
system.cpu.statIssuedInstType_0::MatrixOP            0      0.00%     79.93% # Number of instructions issued per FU type, per thread (Count)
system.cpu.statIssuedInstType_0::MemRead     54247584     12.43%     92.36% # Number of instructions issued per FU type, per thread (Count)
system.cpu.statIssuedInstType_0::MemWrite     32648438      7.48%     99.84% # Number of instructions issued per FU type, per thread (Count)
system.cpu.statIssuedInstType_0::FloatMemRead       630758      0.14%     99.98% # Number of instructions issued per FU type, per thread (Count)
system.cpu.statIssuedInstType_0::FloatMemWrite        83071      0.02%    100.00% # Number of instructions issued per FU type, per thread (Count)
system.cpu.statIssuedInstType_0::IprAccess            0      0.00%    100.00% # Number of instructions issued per FU type, per thread (Count)
system.cpu.statIssuedInstType_0::InstPrefetch            0      0.00%    100.00% # Number of instructions issued per FU type, per thread (Count)
system.cpu.statIssuedInstType_0::SimdUnitStrideLoad            0      0.00%    100.00% # Number of instructions issued per FU type, per thread (Count)
system.cpu.statIssuedInstType_0::SimdUnitStrideStore            0      0.00%    100.00% # Number of instructions issued per FU type, per thread (Count)
system.cpu.statIssuedInstType_0::SimdUnitStrideMaskLoad            0      0.00%    100.00% # Number of instructions issued per FU type, per thread (Count)
system.cpu.statIssuedInstType_0::SimdUnitStrideMaskStore            0      0.00%    100.00% # Number of instructions issued per FU type, per thread (Count)
system.cpu.statIssuedInstType_0::SimdStridedLoad            0      0.00%    100.00% # Number of instructions issued per FU type, per thread (Count)
system.cpu.statIssuedInstType_0::SimdStridedStore            0      0.00%    100.00% # Number of instructions issued per FU type, per thread (Count)
system.cpu.statIssuedInstType_0::SimdIndexedLoad            0      0.00%    100.00% # Number of instructions issued per FU type, per thread (Count)
system.cpu.statIssuedInstType_0::SimdIndexedStore            0      0.00%    100.00% # Number of instructions issued per FU type, per thread (Count)
system.cpu.statIssuedInstType_0::SimdWholeRegisterLoad            0      0.00%    100.00% # Number of instructions issued per FU type, per thread (Count)
system.cpu.statIssuedInstType_0::SimdWholeRegisterStore            0      0.00%    100.00% # Number of instructions issued per FU type, per thread (Count)
system.cpu.statIssuedInstType_0::SimdUnitStrideFaultOnlyFirstLoad            0      0.00%    100.00% # Number of instructions issued per FU type, per thread (Count)
system.cpu.statIssuedInstType_0::SimdUnitStrideSegmentedLoad            0      0.00%    100.00% # Number of instructions issued per FU type, per thread (Count)
system.cpu.statIssuedInstType_0::SimdUnitStrideSegmentedStore            0      0.00%    100.00% # Number of instructions issued per FU type, per thread (Count)
system.cpu.statIssuedInstType_0::SimdExt            0      0.00%    100.00% # Number of instructions issued per FU type, per thread (Count)
system.cpu.statIssuedInstType_0::SimdFloatExt            0      0.00%    100.00% # Number of instructions issued per FU type, per thread (Count)
system.cpu.statIssuedInstType_0::SimdConfig            0      0.00%    100.00% # Number of instructions issued per FU type, per thread (Count)
system.cpu.statIssuedInstType_0::total      436547469                       # Number of instructions issued per FU type, per thread (Count)
system.cpu.issueRate                         2.878942                       # Inst issue rate ((Count/Cycle))
system.cpu.fuBusy                             7220786                       # FU busy when requested (Count)
system.cpu.fuBusyRate                        0.016541                       # FU busy rate (busy events/executed inst) ((Count/Count))
system.cpu.intInstQueueReads               1027124646                       # Number of integer instruction queue reads (Count)
system.cpu.intInstQueueWrites               533930454                       # Number of integer instruction queue writes (Count)
system.cpu.intInstQueueWakeupAccesses       429301562                       # Number of integer instruction queue wakeup accesses (Count)
system.cpu.fpInstQueueReads                   5412573                       # Number of floating instruction queue reads (Count)
system.cpu.fpInstQueueWrites                  3743425                       # Number of floating instruction queue writes (Count)
system.cpu.fpInstQueueWakeupAccesses          2599465                       # Number of floating instruction queue wakeup accesses (Count)
system.cpu.vecInstQueueReads                        0                       # Number of vector instruction queue reads (Count)
system.cpu.vecInstQueueWrites                       0                       # Number of vector instruction queue writes (Count)
system.cpu.vecInstQueueWakeupAccesses               0                       # Number of vector instruction queue wakeup accesses (Count)
system.cpu.intAluAccesses                   433060022                       # Number of integer alu accesses (Count)
system.cpu.fpAluAccesses                      2740308                       # Number of floating point alu accesses (Count)
system.cpu.vecAluAccesses                           0                       # Number of vector alu accesses (Count)
system.cpu.numSquashedInsts                   3541154                       # Number of squashed instructions skipped in execute (Count)
system.cpu.numSwp                                   0                       # Number of swp insts executed (Count)
system.cpu.timesIdled                           67952                       # Number of times that the entire CPU went into an idle state and unscheduled itself (Count)
system.cpu.idleCycles                          364052                       # Total number of cycles that the CPU has spent unscheduled due to idling (Cycle)
system.cpu.MemDepUnit__0.insertedLoads       60257923                       # Number of loads inserted to the mem dependence unit. (Count)
system.cpu.MemDepUnit__0.insertedStores      36550180                       # Number of stores inserted to the mem dependence unit. (Count)
system.cpu.MemDepUnit__0.conflictingLoads     22381860                       # Number of conflicting loads. (Count)
system.cpu.MemDepUnit__0.conflictingStores     14078323                       # Number of conflicting stores. (Count)
system.cpu.MemDepUnit__1.insertedLoads              0                       # Number of loads inserted to the mem dependence unit. (Count)
system.cpu.MemDepUnit__1.insertedStores             0                       # Number of stores inserted to the mem dependence unit. (Count)
system.cpu.MemDepUnit__1.conflictingLoads            0                       # Number of conflicting loads. (Count)
system.cpu.MemDepUnit__1.conflictingStores            0                       # Number of conflicting stores. (Count)
system.cpu.MemDepUnit__2.insertedLoads              0                       # Number of loads inserted to the mem dependence unit. (Count)
system.cpu.MemDepUnit__2.insertedStores             0                       # Number of stores inserted to the mem dependence unit. (Count)
system.cpu.MemDepUnit__2.conflictingLoads            0                       # Number of conflicting loads. (Count)
system.cpu.MemDepUnit__2.conflictingStores            0                       # Number of conflicting stores. (Count)
system.cpu.MemDepUnit__3.insertedLoads              0                       # Number of loads inserted to the mem dependence unit. (Count)
system.cpu.MemDepUnit__3.insertedStores             0                       # Number of stores inserted to the mem dependence unit. (Count)
system.cpu.MemDepUnit__3.conflictingLoads            0                       # Number of conflicting loads. (Count)
system.cpu.MemDepUnit__3.conflictingStores            0                       # Number of conflicting stores. (Count)
system.cpu.branchPred.lookups_0::NoBranch         2264      0.00%      0.00% # Number of BP lookups (Count)
system.cpu.branchPred.lookups_0::Return       2910188      4.72%      4.72% # Number of BP lookups (Count)
system.cpu.branchPred.lookups_0::CallDirect      2646532      4.29%      9.01% # Number of BP lookups (Count)
system.cpu.branchPred.lookups_0::CallIndirect         1319      0.00%      9.01% # Number of BP lookups (Count)
system.cpu.branchPred.lookups_0::DirectCond     50163566     81.33%     90.35% # Number of BP lookups (Count)
system.cpu.branchPred.lookups_0::DirectUncond      4665323      7.56%     97.91% # Number of BP lookups (Count)
system.cpu.branchPred.lookups_0::IndirectCond            0      0.00%     97.91% # Number of BP lookups (Count)
system.cpu.branchPred.lookups_0::IndirectUncond      1289215      2.09%    100.00% # Number of BP lookups (Count)
system.cpu.branchPred.lookups_0::total       61678407                       # Number of BP lookups (Count)
system.cpu.branchPred.squashes_0::NoBranch         1951      0.01%      0.01% # Number of branches that got squashed (completely removed) as an earlier branch was mispredicted. (Count)
system.cpu.branchPred.squashes_0::Return       677156      5.11%      5.13% # Number of branches that got squashed (completely removed) as an earlier branch was mispredicted. (Count)
system.cpu.branchPred.squashes_0::CallDirect       414100      3.13%      8.25% # Number of branches that got squashed (completely removed) as an earlier branch was mispredicted. (Count)
system.cpu.branchPred.squashes_0::CallIndirect          714      0.01%      8.26% # Number of branches that got squashed (completely removed) as an earlier branch was mispredicted. (Count)
system.cpu.branchPred.squashes_0::DirectCond     10995326     83.00%     91.26% # Number of branches that got squashed (completely removed) as an earlier branch was mispredicted. (Count)
system.cpu.branchPred.squashes_0::DirectUncond      1017954      7.68%     98.94% # Number of branches that got squashed (completely removed) as an earlier branch was mispredicted. (Count)
system.cpu.branchPred.squashes_0::IndirectCond            0      0.00%     98.94% # Number of branches that got squashed (completely removed) as an earlier branch was mispredicted. (Count)
system.cpu.branchPred.squashes_0::IndirectUncond       140378      1.06%    100.00% # Number of branches that got squashed (completely removed) as an earlier branch was mispredicted. (Count)
system.cpu.branchPred.squashes_0::total      13247579                       # Number of branches that got squashed (completely removed) as an earlier branch was mispredicted. (Count)
system.cpu.branchPred.corrected_0::NoBranch          498      0.03%      0.03% # Number of branches that got corrected but not yet commited. Branches get corrected by decode or after execute. Also a branch misprediction can be detected out-of-order. Therefore, a corrected branch might not end up beeing committed in case an even earlier branch was mispredicted (Count)
system.cpu.branchPred.corrected_0::Return           21      0.00%      0.03% # Number of branches that got corrected but not yet commited. Branches get corrected by decode or after execute. Also a branch misprediction can be detected out-of-order. Therefore, a corrected branch might not end up beeing committed in case an even earlier branch was mispredicted (Count)
system.cpu.branchPred.corrected_0::CallDirect       202595     12.95%     12.98% # Number of branches that got corrected but not yet commited. Branches get corrected by decode or after execute. Also a branch misprediction can be detected out-of-order. Therefore, a corrected branch might not end up beeing committed in case an even earlier branch was mispredicted (Count)
system.cpu.branchPred.corrected_0::CallIndirect          243      0.02%     12.99% # Number of branches that got corrected but not yet commited. Branches get corrected by decode or after execute. Also a branch misprediction can be detected out-of-order. Therefore, a corrected branch might not end up beeing committed in case an even earlier branch was mispredicted (Count)
system.cpu.branchPred.corrected_0::DirectCond      1292601     82.59%     95.59% # Number of branches that got corrected but not yet commited. Branches get corrected by decode or after execute. Also a branch misprediction can be detected out-of-order. Therefore, a corrected branch might not end up beeing committed in case an even earlier branch was mispredicted (Count)
system.cpu.branchPred.corrected_0::DirectUncond        67884      4.34%     99.93% # Number of branches that got corrected but not yet commited. Branches get corrected by decode or after execute. Also a branch misprediction can be detected out-of-order. Therefore, a corrected branch might not end up beeing committed in case an even earlier branch was mispredicted (Count)
system.cpu.branchPred.corrected_0::IndirectCond            0      0.00%     99.93% # Number of branches that got corrected but not yet commited. Branches get corrected by decode or after execute. Also a branch misprediction can be detected out-of-order. Therefore, a corrected branch might not end up beeing committed in case an even earlier branch was mispredicted (Count)
system.cpu.branchPred.corrected_0::IndirectUncond         1152      0.07%    100.00% # Number of branches that got corrected but not yet commited. Branches get corrected by decode or after execute. Also a branch misprediction can be detected out-of-order. Therefore, a corrected branch might not end up beeing committed in case an even earlier branch was mispredicted (Count)
system.cpu.branchPred.corrected_0::total      1564994                       # Number of branches that got corrected but not yet commited. Branches get corrected by decode or after execute. Also a branch misprediction can be detected out-of-order. Therefore, a corrected branch might not end up beeing committed in case an even earlier branch was mispredicted (Count)
system.cpu.branchPred.earlyResteers_0::NoBranch            0                       # Number of branches that got redirected after decode. (Count)
system.cpu.branchPred.earlyResteers_0::Return            0                       # Number of branches that got redirected after decode. (Count)
system.cpu.branchPred.earlyResteers_0::CallDirect            0                       # Number of branches that got redirected after decode. (Count)
system.cpu.branchPred.earlyResteers_0::CallIndirect            0                       # Number of branches that got redirected after decode. (Count)
system.cpu.branchPred.earlyResteers_0::DirectCond            0                       # Number of branches that got redirected after decode. (Count)
system.cpu.branchPred.earlyResteers_0::DirectUncond            0                       # Number of branches that got redirected after decode. (Count)
system.cpu.branchPred.earlyResteers_0::IndirectCond            0                       # Number of branches that got redirected after decode. (Count)
system.cpu.branchPred.earlyResteers_0::IndirectUncond            0                       # Number of branches that got redirected after decode. (Count)
system.cpu.branchPred.earlyResteers_0::total            0                       # Number of branches that got redirected after decode. (Count)
system.cpu.branchPred.committed_0::NoBranch          313      0.00%      0.00% # Number of branches finally committed  (Count)
system.cpu.branchPred.committed_0::Return      2233031      4.61%      4.61% # Number of branches finally committed  (Count)
system.cpu.branchPred.committed_0::CallDirect      2232431      4.61%      9.22% # Number of branches finally committed  (Count)
system.cpu.branchPred.committed_0::CallIndirect          605      0.00%      9.22% # Number of branches finally committed  (Count)
system.cpu.branchPred.committed_0::DirectCond     39168240     80.87%     90.10% # Number of branches finally committed  (Count)
system.cpu.branchPred.committed_0::DirectUncond      3647369      7.53%     97.63% # Number of branches finally committed  (Count)
system.cpu.branchPred.committed_0::IndirectCond            0      0.00%     97.63% # Number of branches finally committed  (Count)
system.cpu.branchPred.committed_0::IndirectUncond      1148837      2.37%    100.00% # Number of branches finally committed  (Count)
system.cpu.branchPred.committed_0::total     48430826                       # Number of branches finally committed  (Count)
system.cpu.branchPred.mispredicted_0::NoBranch          313      0.02%      0.02% # Number of committed branches that were mispredicted. (Count)
system.cpu.branchPred.mispredicted_0::Return            5      0.00%      0.02% # Number of committed branches that were mispredicted. (Count)
system.cpu.branchPred.mispredicted_0::CallDirect       134908     10.44%     10.46% # Number of committed branches that were mispredicted. (Count)
system.cpu.branchPred.mispredicted_0::CallIndirect          217      0.02%     10.48% # Number of committed branches that were mispredicted. (Count)
system.cpu.branchPred.mispredicted_0::DirectCond      1088641     84.21%     94.68% # Number of committed branches that were mispredicted. (Count)
system.cpu.branchPred.mispredicted_0::DirectUncond        67620      5.23%     99.91% # Number of committed branches that were mispredicted. (Count)
system.cpu.branchPred.mispredicted_0::IndirectCond            0      0.00%     99.91% # Number of committed branches that were mispredicted. (Count)
system.cpu.branchPred.mispredicted_0::IndirectUncond         1105      0.09%    100.00% # Number of committed branches that were mispredicted. (Count)
system.cpu.branchPred.mispredicted_0::total      1292809                       # Number of committed branches that were mispredicted. (Count)
system.cpu.branchPred.targetProvider_0::NoTarget     19547073     31.69%     31.69% # The component providing the target for taken branches (Count)
system.cpu.branchPred.targetProvider_0::BTB     38004818     61.62%     93.31% # The component providing the target for taken branches (Count)
system.cpu.branchPred.targetProvider_0::RAS      2910186      4.72%     98.03% # The component providing the target for taken branches (Count)
system.cpu.branchPred.targetProvider_0::Indirect      1216330      1.97%    100.00% # The component providing the target for taken branches (Count)
system.cpu.branchPred.targetProvider_0::total     61678407                       # The component providing the target for taken branches (Count)
system.cpu.branchPred.targetWrong_0::NoBranch       883067     56.51%     56.51% # Number of branches where the target was incorrect or not available at prediction time. (Count)
system.cpu.branchPred.targetWrong_0::Return       679528     43.48%     99.99% # Number of branches where the target was incorrect or not available at prediction time. (Count)
system.cpu.branchPred.targetWrong_0::CallDirect           21      0.00%     99.99% # Number of branches where the target was incorrect or not available at prediction time. (Count)
system.cpu.branchPred.targetWrong_0::CallIndirect          132      0.01%    100.00% # Number of branches where the target was incorrect or not available at prediction time. (Count)
system.cpu.branchPred.targetWrong_0::DirectCond            0      0.00%    100.00% # Number of branches where the target was incorrect or not available at prediction time. (Count)
system.cpu.branchPred.targetWrong_0::DirectUncond            0      0.00%    100.00% # Number of branches where the target was incorrect or not available at prediction time. (Count)
system.cpu.branchPred.targetWrong_0::IndirectCond            0      0.00%    100.00% # Number of branches where the target was incorrect or not available at prediction time. (Count)
system.cpu.branchPred.targetWrong_0::IndirectUncond            0      0.00%    100.00% # Number of branches where the target was incorrect or not available at prediction time. (Count)
system.cpu.branchPred.targetWrong_0::total      1562748                       # Number of branches where the target was incorrect or not available at prediction time. (Count)
system.cpu.branchPred.condPredicted          50165830                       # Number of conditional branches predicted (Count)
system.cpu.branchPred.condPredictedTaken     31101369                       # Number of conditional branches predicted as taken (Count)
system.cpu.branchPred.condIncorrect           1564994                       # Number of conditional branches incorrect (Count)
system.cpu.branchPred.predTakenBTBMiss         405354                       # Number of branches predicted taken but missed in BTB (Count)
system.cpu.branchPred.NotTakenMispredicted       884793                       # Number branches predicted 'not taken' but turned out to be taken (Count)
system.cpu.branchPred.TakenMispredicted        680201                       # Number branches predicted taken but are actually not taken (Count)
system.cpu.branchPred.BTBLookups             61678407                       # Number of BTB lookups (Count)
system.cpu.branchPred.BTBUpdates               882879                       # Number of BTB updates (Count)
system.cpu.branchPred.BTBHits                52295842                       # Number of BTB hits (Count)
system.cpu.branchPred.BTBHitRatio            0.847879                       # BTB Hit Ratio (Ratio)
system.cpu.branchPred.BTBMispredicted          406224                       # Number BTB mispredictions. No target found or target wrong (Count)
system.cpu.branchPred.indirectLookups         1290534                       # Number of indirect predictor lookups. (Count)
system.cpu.branchPred.indirectHits            1216330                       # Number of indirect target hits. (Count)
system.cpu.branchPred.indirectMisses            74204                       # Number of indirect misses. (Count)
system.cpu.branchPred.indirectMispredicted            0                       # Number of mispredicted indirect branches. (Count)
system.cpu.branchPred.btb.lookups::NoBranch         2264      0.00%      0.00% # Number of BTB lookups (Count)
system.cpu.branchPred.btb.lookups::Return      2910188      4.72%      4.72% # Number of BTB lookups (Count)
system.cpu.branchPred.btb.lookups::CallDirect      2646532      4.29%      9.01% # Number of BTB lookups (Count)
system.cpu.branchPred.btb.lookups::CallIndirect         1319      0.00%      9.01% # Number of BTB lookups (Count)
system.cpu.branchPred.btb.lookups::DirectCond     50163566     81.33%     90.35% # Number of BTB lookups (Count)
system.cpu.branchPred.btb.lookups::DirectUncond      4665323      7.56%     97.91% # Number of BTB lookups (Count)
system.cpu.branchPred.btb.lookups::IndirectCond            0      0.00%     97.91% # Number of BTB lookups (Count)
system.cpu.branchPred.btb.lookups::IndirectUncond      1289215      2.09%    100.00% # Number of BTB lookups (Count)
system.cpu.branchPred.btb.lookups::total     61678407                       # Number of BTB lookups (Count)
system.cpu.branchPred.btb.misses::NoBranch          435      0.00%      0.00% # Number of BTB misses (Count)
system.cpu.branchPred.btb.misses::Return      2910188     31.02%     31.02% # Number of BTB misses (Count)
system.cpu.branchPred.btb.misses::CallDirect       203100      2.16%     33.19% # Number of BTB misses (Count)
system.cpu.branchPred.btb.misses::CallIndirect         1319      0.01%     33.20% # Number of BTB misses (Count)
system.cpu.branchPred.btb.misses::DirectCond      4910103     52.33%     85.53% # Number of BTB misses (Count)
system.cpu.branchPred.btb.misses::DirectUncond        68205      0.73%     86.26% # Number of BTB misses (Count)
system.cpu.branchPred.btb.misses::IndirectCond            0      0.00%     86.26% # Number of BTB misses (Count)
system.cpu.branchPred.btb.misses::IndirectUncond      1289215     13.74%    100.00% # Number of BTB misses (Count)
system.cpu.branchPred.btb.misses::total       9382565                       # Number of BTB misses (Count)
system.cpu.branchPred.btb.updates::NoBranch            0      0.00%      0.00% # Number of BTB updates (Count)
system.cpu.branchPred.btb.updates::Return            0      0.00%      0.00% # Number of BTB updates (Count)
system.cpu.branchPred.btb.updates::CallDirect       202595     22.95%     22.95% # Number of BTB updates (Count)
system.cpu.branchPred.btb.updates::CallIndirect            0      0.00%     22.95% # Number of BTB updates (Count)
system.cpu.branchPred.btb.updates::DirectCond       612400     69.36%     92.31% # Number of BTB updates (Count)
system.cpu.branchPred.btb.updates::DirectUncond        67884      7.69%    100.00% # Number of BTB updates (Count)
system.cpu.branchPred.btb.updates::IndirectCond            0      0.00%    100.00% # Number of BTB updates (Count)
system.cpu.branchPred.btb.updates::IndirectUncond            0      0.00%    100.00% # Number of BTB updates (Count)
system.cpu.branchPred.btb.updates::total       882879                       # Number of BTB updates (Count)
system.cpu.branchPred.btb.mispredict::NoBranch            0      0.00%      0.00% # Number of BTB mispredictions. No target found or target wrong. (Count)
system.cpu.branchPred.btb.mispredict::Return            0      0.00%      0.00% # Number of BTB mispredictions. No target found or target wrong. (Count)
system.cpu.branchPred.btb.mispredict::CallDirect       202595     22.95%     22.95% # Number of BTB mispredictions. No target found or target wrong. (Count)
system.cpu.branchPred.btb.mispredict::CallIndirect            0      0.00%     22.95% # Number of BTB mispredictions. No target found or target wrong. (Count)
system.cpu.branchPred.btb.mispredict::DirectCond       612400     69.36%     92.31% # Number of BTB mispredictions. No target found or target wrong. (Count)
system.cpu.branchPred.btb.mispredict::DirectUncond        67884      7.69%    100.00% # Number of BTB mispredictions. No target found or target wrong. (Count)
system.cpu.branchPred.btb.mispredict::IndirectCond            0      0.00%    100.00% # Number of BTB mispredictions. No target found or target wrong. (Count)
system.cpu.branchPred.btb.mispredict::IndirectUncond            0      0.00%    100.00% # Number of BTB mispredictions. No target found or target wrong. (Count)
system.cpu.branchPred.btb.mispredict::total       882879                       # Number of BTB mispredictions. No target found or target wrong. (Count)
system.cpu.branchPred.btb.power_state.pwrStateResidencyTicks::UNDEFINED 2021745561764                       # Cumulative time (in ticks) in various power states (Tick)
system.cpu.branchPred.indirectBranchPred.lookups      1290534                       # Number of lookups (Count)
system.cpu.branchPred.indirectBranchPred.hits      1216330                       # Number of hits of a tag (Count)
system.cpu.branchPred.indirectBranchPred.misses        74204                       # Number of misses (Count)
system.cpu.branchPred.indirectBranchPred.targetRecords         1395                       # Number of targets that where recorded/installed in the cache (Count)
system.cpu.branchPred.indirectBranchPred.indirectRecords      1291929                       # Number of indirect branches/calls recorded in the indirect hist (Count)
system.cpu.branchPred.indirectBranchPred.speculativeOverflows            1                       # Number of times more than the allowed capacity for speculative branches/calls where in flight and destroy the path history (Count)
system.cpu.branchPred.ras.pushes              3325007                       # Number of times a PC was pushed onto the RAS (Count)
system.cpu.branchPred.ras.pops                3325002                       # Number of times a PC was poped from the RAS (Count)
system.cpu.branchPred.ras.squashes            1091970                       # Number of times the stack operation was squashed due to wrong speculation. (Count)
system.cpu.branchPred.ras.used                2233031                       # Number of times the RAS is the provider (Count)
system.cpu.branchPred.ras.correct             2233026                       # Number of times the RAS is the provider and the prediction is correct (Count)
system.cpu.branchPred.ras.incorrect                 5                       # Number of times the RAS is the provider and the prediction is wrong (Count)
system.cpu.commit.commitSquashedInsts        72345979                       # The number of squashed insts skipped by commit (Count)
system.cpu.commit.commitNonSpecStalls            2903                       # The number of times commit has been forced to stall to communicate backwards (Count)
system.cpu.commit.branchMispredicts           1294556                       # The number of times a branch was mispredicted (Count)
system.cpu.commit.numCommittedDist::samples    141270528                       # Number of insts commited each cycle (Count)
system.cpu.commit.numCommittedDist::mean     2.709229                       # Number of insts commited each cycle (Count)
system.cpu.commit.numCommittedDist::stdev     2.871750                       # Number of insts commited each cycle (Count)
system.cpu.commit.numCommittedDist::underflows            0      0.00%      0.00% # Number of insts commited each cycle (Count)
system.cpu.commit.numCommittedDist::0        53917568     38.17%     38.17% # Number of insts commited each cycle (Count)
system.cpu.commit.numCommittedDist::1         8618722      6.10%     44.27% # Number of insts commited each cycle (Count)
system.cpu.commit.numCommittedDist::2         7163047      5.07%     49.34% # Number of insts commited each cycle (Count)
system.cpu.commit.numCommittedDist::3        34393104     24.35%     73.68% # Number of insts commited each cycle (Count)
system.cpu.commit.numCommittedDist::4         5393863      3.82%     77.50% # Number of insts commited each cycle (Count)
system.cpu.commit.numCommittedDist::5         2971103      2.10%     79.60% # Number of insts commited each cycle (Count)
system.cpu.commit.numCommittedDist::6         2712506      1.92%     81.52% # Number of insts commited each cycle (Count)
system.cpu.commit.numCommittedDist::7         4900861      3.47%     84.99% # Number of insts commited each cycle (Count)
system.cpu.commit.numCommittedDist::8        21199754     15.01%    100.00% # Number of insts commited each cycle (Count)
system.cpu.commit.numCommittedDist::overflows            0      0.00%    100.00% # Number of insts commited each cycle (Count)
system.cpu.commit.numCommittedDist::min_value            0                       # Number of insts commited each cycle (Count)
system.cpu.commit.numCommittedDist::max_value            8                       # Number of insts commited each cycle (Count)
system.cpu.commit.numCommittedDist::total    141270528                       # Number of insts commited each cycle (Count)
system.cpu.commit.amos                              0                       # Number of atomic instructions committed (Count)
system.cpu.commit.membars                        1436                       # Number of memory barriers committed (Count)
system.cpu.commit.functionCalls               2233036                       # Number of function calls committed. (Count)
system.cpu.commit.committedInstType_0::No_OpClass      6877547      1.80%      1.80% # Class of committed instruction (Count)
system.cpu.commit.committedInstType_0::IntAlu    293220374     76.61%     78.41% # Class of committed instruction (Count)
system.cpu.commit.committedInstType_0::IntMult       202089      0.05%     78.46% # Class of committed instruction (Count)
system.cpu.commit.committedInstType_0::IntDiv        39630      0.01%     78.47% # Class of committed instruction (Count)
system.cpu.commit.committedInstType_0::FloatAdd       208977      0.05%     78.53% # Class of committed instruction (Count)
system.cpu.commit.committedInstType_0::FloatCmp            0      0.00%     78.53% # Class of committed instruction (Count)
system.cpu.commit.committedInstType_0::FloatCvt         1312      0.00%     78.53% # Class of committed instruction (Count)
system.cpu.commit.committedInstType_0::FloatMult            0      0.00%     78.53% # Class of committed instruction (Count)
system.cpu.commit.committedInstType_0::FloatMultAcc            0      0.00%     78.53% # Class of committed instruction (Count)
system.cpu.commit.committedInstType_0::FloatDiv            0      0.00%     78.53% # Class of committed instruction (Count)
system.cpu.commit.committedInstType_0::FloatMisc            0      0.00%     78.53% # Class of committed instruction (Count)
system.cpu.commit.committedInstType_0::FloatSqrt            0      0.00%     78.53% # Class of committed instruction (Count)
system.cpu.commit.committedInstType_0::SimdAdd         6606      0.00%     78.53% # Class of committed instruction (Count)
system.cpu.commit.committedInstType_0::SimdAddAcc            0      0.00%     78.53% # Class of committed instruction (Count)
system.cpu.commit.committedInstType_0::SimdAlu       685737      0.18%     78.71% # Class of committed instruction (Count)
system.cpu.commit.committedInstType_0::SimdCmp            6      0.00%     78.71% # Class of committed instruction (Count)
system.cpu.commit.committedInstType_0::SimdCvt       148210      0.04%     78.75% # Class of committed instruction (Count)
system.cpu.commit.committedInstType_0::SimdMisc       215295      0.06%     78.80% # Class of committed instruction (Count)
system.cpu.commit.committedInstType_0::SimdMult            0      0.00%     78.80% # Class of committed instruction (Count)
system.cpu.commit.committedInstType_0::SimdMultAcc            0      0.00%     78.80% # Class of committed instruction (Count)
system.cpu.commit.committedInstType_0::SimdMatMultAcc            0      0.00%     78.80% # Class of committed instruction (Count)
system.cpu.commit.committedInstType_0::SimdShift         1828      0.00%     78.80% # Class of committed instruction (Count)
system.cpu.commit.committedInstType_0::SimdShiftAcc            0      0.00%     78.80% # Class of committed instruction (Count)
system.cpu.commit.committedInstType_0::SimdDiv            0      0.00%     78.80% # Class of committed instruction (Count)
system.cpu.commit.committedInstType_0::SimdSqrt            0      0.00%     78.80% # Class of committed instruction (Count)
system.cpu.commit.committedInstType_0::SimdFloatAdd        67261      0.02%     78.82% # Class of committed instruction (Count)
system.cpu.commit.committedInstType_0::SimdFloatAlu            0      0.00%     78.82% # Class of committed instruction (Count)
system.cpu.commit.committedInstType_0::SimdFloatCmp            0      0.00%     78.82% # Class of committed instruction (Count)
system.cpu.commit.committedInstType_0::SimdFloatCvt       134522      0.04%     78.86% # Class of committed instruction (Count)
system.cpu.commit.committedInstType_0::SimdFloatDiv        67261      0.02%     78.87% # Class of committed instruction (Count)
system.cpu.commit.committedInstType_0::SimdFloatMisc            0      0.00%     78.87% # Class of committed instruction (Count)
system.cpu.commit.committedInstType_0::SimdFloatMult            0      0.00%     78.87% # Class of committed instruction (Count)
system.cpu.commit.committedInstType_0::SimdFloatMultAcc            0      0.00%     78.87% # Class of committed instruction (Count)
system.cpu.commit.committedInstType_0::SimdFloatMatMultAcc            0      0.00%     78.87% # Class of committed instruction (Count)
system.cpu.commit.committedInstType_0::SimdFloatSqrt            0      0.00%     78.87% # Class of committed instruction (Count)
system.cpu.commit.committedInstType_0::SimdReduceAdd            0      0.00%     78.87% # Class of committed instruction (Count)
system.cpu.commit.committedInstType_0::SimdReduceAlu            0      0.00%     78.87% # Class of committed instruction (Count)
system.cpu.commit.committedInstType_0::SimdReduceCmp            0      0.00%     78.87% # Class of committed instruction (Count)
system.cpu.commit.committedInstType_0::SimdFloatReduceAdd            0      0.00%     78.87% # Class of committed instruction (Count)
system.cpu.commit.committedInstType_0::SimdFloatReduceCmp            0      0.00%     78.87% # Class of committed instruction (Count)
system.cpu.commit.committedInstType_0::SimdAes            0      0.00%     78.87% # Class of committed instruction (Count)
system.cpu.commit.committedInstType_0::SimdAesMix            0      0.00%     78.87% # Class of committed instruction (Count)
system.cpu.commit.committedInstType_0::SimdSha1Hash            0      0.00%     78.87% # Class of committed instruction (Count)
system.cpu.commit.committedInstType_0::SimdSha1Hash2            0      0.00%     78.87% # Class of committed instruction (Count)
system.cpu.commit.committedInstType_0::SimdSha256Hash            0      0.00%     78.87% # Class of committed instruction (Count)
system.cpu.commit.committedInstType_0::SimdSha256Hash2            0      0.00%     78.87% # Class of committed instruction (Count)
system.cpu.commit.committedInstType_0::SimdShaSigma2            0      0.00%     78.87% # Class of committed instruction (Count)
system.cpu.commit.committedInstType_0::SimdShaSigma3            0      0.00%     78.87% # Class of committed instruction (Count)
system.cpu.commit.committedInstType_0::SimdPredAlu            0      0.00%     78.87% # Class of committed instruction (Count)
system.cpu.commit.committedInstType_0::Matrix            0      0.00%     78.87% # Class of committed instruction (Count)
system.cpu.commit.committedInstType_0::MatrixMov            0      0.00%     78.87% # Class of committed instruction (Count)
system.cpu.commit.committedInstType_0::MatrixOP            0      0.00%     78.87% # Class of committed instruction (Count)
system.cpu.commit.committedInstType_0::MemRead     49848577     13.02%     91.90% # Class of committed instruction (Count)
system.cpu.commit.committedInstType_0::MemWrite     30505835      7.97%     99.87% # Class of committed instruction (Count)
system.cpu.commit.committedInstType_0::FloatMemRead       421089      0.11%     99.98% # Class of committed instruction (Count)
system.cpu.commit.committedInstType_0::FloatMemWrite        82034      0.02%    100.00% # Class of committed instruction (Count)
system.cpu.commit.committedInstType_0::IprAccess            0      0.00%    100.00% # Class of committed instruction (Count)
system.cpu.commit.committedInstType_0::InstPrefetch            0      0.00%    100.00% # Class of committed instruction (Count)
system.cpu.commit.committedInstType_0::SimdUnitStrideLoad            0      0.00%    100.00% # Class of committed instruction (Count)
system.cpu.commit.committedInstType_0::SimdUnitStrideStore            0      0.00%    100.00% # Class of committed instruction (Count)
system.cpu.commit.committedInstType_0::SimdUnitStrideMaskLoad            0      0.00%    100.00% # Class of committed instruction (Count)
system.cpu.commit.committedInstType_0::SimdUnitStrideMaskStore            0      0.00%    100.00% # Class of committed instruction (Count)
system.cpu.commit.committedInstType_0::SimdStridedLoad            0      0.00%    100.00% # Class of committed instruction (Count)
system.cpu.commit.committedInstType_0::SimdStridedStore            0      0.00%    100.00% # Class of committed instruction (Count)
system.cpu.commit.committedInstType_0::SimdIndexedLoad            0      0.00%    100.00% # Class of committed instruction (Count)
system.cpu.commit.committedInstType_0::SimdIndexedStore            0      0.00%    100.00% # Class of committed instruction (Count)
system.cpu.commit.committedInstType_0::SimdWholeRegisterLoad            0      0.00%    100.00% # Class of committed instruction (Count)
system.cpu.commit.committedInstType_0::SimdWholeRegisterStore            0      0.00%    100.00% # Class of committed instruction (Count)
system.cpu.commit.committedInstType_0::SimdUnitStrideFaultOnlyFirstLoad            0      0.00%    100.00% # Class of committed instruction (Count)
system.cpu.commit.committedInstType_0::SimdUnitStrideSegmentedLoad            0      0.00%    100.00% # Class of committed instruction (Count)
system.cpu.commit.committedInstType_0::SimdUnitStrideSegmentedStore            0      0.00%    100.00% # Class of committed instruction (Count)
system.cpu.commit.committedInstType_0::SimdExt            0      0.00%    100.00% # Class of committed instruction (Count)
system.cpu.commit.committedInstType_0::SimdFloatExt            0      0.00%    100.00% # Class of committed instruction (Count)
system.cpu.commit.committedInstType_0::SimdConfig            0      0.00%    100.00% # Class of committed instruction (Count)
system.cpu.commit.committedInstType_0::total    382734190                       # Class of committed instruction (Count)
system.cpu.commit.commitEligibleSamples      21199754                       # number cycles where commit BW limit reached (Cycle)
system.cpu.commitStats0.numInsts            225878650                       # Number of instructions committed (thread level) (Count)
system.cpu.commitStats0.numOps              382734190                       # Number of ops (including micro ops) committed (thread level) (Count)
system.cpu.commitStats0.numInstsNotNOP      225878650                       # Number of instructions committed excluding NOPs or prefetches (Count)
system.cpu.commitStats0.numOpsNotNOP        382734190                       # Number of Ops (including micro ops) Simulated (Count)
system.cpu.commitStats0.cpi                  0.671310                       # CPI: cycles per instruction (thread level) ((Cycle/Count))
system.cpu.commitStats0.ipc                  1.489624                       # IPC: instructions per cycle (thread level) ((Count/Cycle))
system.cpu.commitStats0.numMemRefs           80857535                       # Number of memory references committed (Count)
system.cpu.commitStats0.numFpInsts            2044039                       # Number of float instructions (Count)
system.cpu.commitStats0.numIntInsts         374383805                       # Number of integer instructions (Count)
system.cpu.commitStats0.numLoadInsts         50269666                       # Number of load instructions (Count)
system.cpu.commitStats0.numStoreInsts        30587869                       # Number of store instructions (Count)
system.cpu.commitStats0.numVecInsts                 0                       # Number of vector instructions (Count)
system.cpu.commitStats0.committedInstType::No_OpClass      6877547      1.80%      1.80% # Class of committed instruction. (Count)
system.cpu.commitStats0.committedInstType::IntAlu    293220374     76.61%     78.41% # Class of committed instruction. (Count)
system.cpu.commitStats0.committedInstType::IntMult       202089      0.05%     78.46% # Class of committed instruction. (Count)
system.cpu.commitStats0.committedInstType::IntDiv        39630      0.01%     78.47% # Class of committed instruction. (Count)
system.cpu.commitStats0.committedInstType::FloatAdd       208977      0.05%     78.53% # Class of committed instruction. (Count)
system.cpu.commitStats0.committedInstType::FloatCmp            0      0.00%     78.53% # Class of committed instruction. (Count)
system.cpu.commitStats0.committedInstType::FloatCvt         1312      0.00%     78.53% # Class of committed instruction. (Count)
system.cpu.commitStats0.committedInstType::FloatMult            0      0.00%     78.53% # Class of committed instruction. (Count)
system.cpu.commitStats0.committedInstType::FloatMultAcc            0      0.00%     78.53% # Class of committed instruction. (Count)
system.cpu.commitStats0.committedInstType::FloatDiv            0      0.00%     78.53% # Class of committed instruction. (Count)
system.cpu.commitStats0.committedInstType::FloatMisc            0      0.00%     78.53% # Class of committed instruction. (Count)
system.cpu.commitStats0.committedInstType::FloatSqrt            0      0.00%     78.53% # Class of committed instruction. (Count)
system.cpu.commitStats0.committedInstType::SimdAdd         6606      0.00%     78.53% # Class of committed instruction. (Count)
system.cpu.commitStats0.committedInstType::SimdAddAcc            0      0.00%     78.53% # Class of committed instruction. (Count)
system.cpu.commitStats0.committedInstType::SimdAlu       685737      0.18%     78.71% # Class of committed instruction. (Count)
system.cpu.commitStats0.committedInstType::SimdCmp            6      0.00%     78.71% # Class of committed instruction. (Count)
system.cpu.commitStats0.committedInstType::SimdCvt       148210      0.04%     78.75% # Class of committed instruction. (Count)
system.cpu.commitStats0.committedInstType::SimdMisc       215295      0.06%     78.80% # Class of committed instruction. (Count)
system.cpu.commitStats0.committedInstType::SimdMult            0      0.00%     78.80% # Class of committed instruction. (Count)
system.cpu.commitStats0.committedInstType::SimdMultAcc            0      0.00%     78.80% # Class of committed instruction. (Count)
system.cpu.commitStats0.committedInstType::SimdMatMultAcc            0      0.00%     78.80% # Class of committed instruction. (Count)
system.cpu.commitStats0.committedInstType::SimdShift         1828      0.00%     78.80% # Class of committed instruction. (Count)
system.cpu.commitStats0.committedInstType::SimdShiftAcc            0      0.00%     78.80% # Class of committed instruction. (Count)
system.cpu.commitStats0.committedInstType::SimdDiv            0      0.00%     78.80% # Class of committed instruction. (Count)
system.cpu.commitStats0.committedInstType::SimdSqrt            0      0.00%     78.80% # Class of committed instruction. (Count)
system.cpu.commitStats0.committedInstType::SimdFloatAdd        67261      0.02%     78.82% # Class of committed instruction. (Count)
system.cpu.commitStats0.committedInstType::SimdFloatAlu            0      0.00%     78.82% # Class of committed instruction. (Count)
system.cpu.commitStats0.committedInstType::SimdFloatCmp            0      0.00%     78.82% # Class of committed instruction. (Count)
system.cpu.commitStats0.committedInstType::SimdFloatCvt       134522      0.04%     78.86% # Class of committed instruction. (Count)
system.cpu.commitStats0.committedInstType::SimdFloatDiv        67261      0.02%     78.87% # Class of committed instruction. (Count)
system.cpu.commitStats0.committedInstType::SimdFloatMisc            0      0.00%     78.87% # Class of committed instruction. (Count)
system.cpu.commitStats0.committedInstType::SimdFloatMult            0      0.00%     78.87% # Class of committed instruction. (Count)
system.cpu.commitStats0.committedInstType::SimdFloatMultAcc            0      0.00%     78.87% # Class of committed instruction. (Count)
system.cpu.commitStats0.committedInstType::SimdFloatMatMultAcc            0      0.00%     78.87% # Class of committed instruction. (Count)
system.cpu.commitStats0.committedInstType::SimdFloatSqrt            0      0.00%     78.87% # Class of committed instruction. (Count)
system.cpu.commitStats0.committedInstType::SimdReduceAdd            0      0.00%     78.87% # Class of committed instruction. (Count)
system.cpu.commitStats0.committedInstType::SimdReduceAlu            0      0.00%     78.87% # Class of committed instruction. (Count)
system.cpu.commitStats0.committedInstType::SimdReduceCmp            0      0.00%     78.87% # Class of committed instruction. (Count)
system.cpu.commitStats0.committedInstType::SimdFloatReduceAdd            0      0.00%     78.87% # Class of committed instruction. (Count)
system.cpu.commitStats0.committedInstType::SimdFloatReduceCmp            0      0.00%     78.87% # Class of committed instruction. (Count)
system.cpu.commitStats0.committedInstType::SimdAes            0      0.00%     78.87% # Class of committed instruction. (Count)
system.cpu.commitStats0.committedInstType::SimdAesMix            0      0.00%     78.87% # Class of committed instruction. (Count)
system.cpu.commitStats0.committedInstType::SimdSha1Hash            0      0.00%     78.87% # Class of committed instruction. (Count)
system.cpu.commitStats0.committedInstType::SimdSha1Hash2            0      0.00%     78.87% # Class of committed instruction. (Count)
system.cpu.commitStats0.committedInstType::SimdSha256Hash            0      0.00%     78.87% # Class of committed instruction. (Count)
system.cpu.commitStats0.committedInstType::SimdSha256Hash2            0      0.00%     78.87% # Class of committed instruction. (Count)
system.cpu.commitStats0.committedInstType::SimdShaSigma2            0      0.00%     78.87% # Class of committed instruction. (Count)
system.cpu.commitStats0.committedInstType::SimdShaSigma3            0      0.00%     78.87% # Class of committed instruction. (Count)
system.cpu.commitStats0.committedInstType::SimdPredAlu            0      0.00%     78.87% # Class of committed instruction. (Count)
system.cpu.commitStats0.committedInstType::Matrix            0      0.00%     78.87% # Class of committed instruction. (Count)
system.cpu.commitStats0.committedInstType::MatrixMov            0      0.00%     78.87% # Class of committed instruction. (Count)
system.cpu.commitStats0.committedInstType::MatrixOP            0      0.00%     78.87% # Class of committed instruction. (Count)
system.cpu.commitStats0.committedInstType::MemRead     49848577     13.02%     91.90% # Class of committed instruction. (Count)
system.cpu.commitStats0.committedInstType::MemWrite     30505835      7.97%     99.87% # Class of committed instruction. (Count)
system.cpu.commitStats0.committedInstType::FloatMemRead       421089      0.11%     99.98% # Class of committed instruction. (Count)
system.cpu.commitStats0.committedInstType::FloatMemWrite        82034      0.02%    100.00% # Class of committed instruction. (Count)
system.cpu.commitStats0.committedInstType::IprAccess            0      0.00%    100.00% # Class of committed instruction. (Count)
system.cpu.commitStats0.committedInstType::InstPrefetch            0      0.00%    100.00% # Class of committed instruction. (Count)
system.cpu.commitStats0.committedInstType::SimdUnitStrideLoad            0      0.00%    100.00% # Class of committed instruction. (Count)
system.cpu.commitStats0.committedInstType::SimdUnitStrideStore            0      0.00%    100.00% # Class of committed instruction. (Count)
system.cpu.commitStats0.committedInstType::SimdUnitStrideMaskLoad            0      0.00%    100.00% # Class of committed instruction. (Count)
system.cpu.commitStats0.committedInstType::SimdUnitStrideMaskStore            0      0.00%    100.00% # Class of committed instruction. (Count)
system.cpu.commitStats0.committedInstType::SimdStridedLoad            0      0.00%    100.00% # Class of committed instruction. (Count)
system.cpu.commitStats0.committedInstType::SimdStridedStore            0      0.00%    100.00% # Class of committed instruction. (Count)
system.cpu.commitStats0.committedInstType::SimdIndexedLoad            0      0.00%    100.00% # Class of committed instruction. (Count)
system.cpu.commitStats0.committedInstType::SimdIndexedStore            0      0.00%    100.00% # Class of committed instruction. (Count)
system.cpu.commitStats0.committedInstType::SimdWholeRegisterLoad            0      0.00%    100.00% # Class of committed instruction. (Count)
system.cpu.commitStats0.committedInstType::SimdWholeRegisterStore            0      0.00%    100.00% # Class of committed instruction. (Count)
system.cpu.commitStats0.committedInstType::SimdUnitStrideFaultOnlyFirstLoad            0      0.00%    100.00% # Class of committed instruction. (Count)
system.cpu.commitStats0.committedInstType::SimdUnitStrideSegmentedLoad            0      0.00%    100.00% # Class of committed instruction. (Count)
system.cpu.commitStats0.committedInstType::SimdUnitStrideSegmentedStore            0      0.00%    100.00% # Class of committed instruction. (Count)
system.cpu.commitStats0.committedInstType::SimdExt            0      0.00%    100.00% # Class of committed instruction. (Count)
system.cpu.commitStats0.committedInstType::SimdFloatExt            0      0.00%    100.00% # Class of committed instruction. (Count)
system.cpu.commitStats0.committedInstType::SimdConfig            0      0.00%    100.00% # Class of committed instruction. (Count)
system.cpu.commitStats0.committedInstType::total    382734190                       # Class of committed instruction. (Count)
system.cpu.commitStats0.committedControl::IsControl     48430826                       # Class of control type instructions committed (Count)
system.cpu.commitStats0.committedControl::IsDirectControl     45048040                       # Class of control type instructions committed (Count)
system.cpu.commitStats0.committedControl::IsIndirectControl      3382473                       # Class of control type instructions committed (Count)
system.cpu.commitStats0.committedControl::IsCondControl     39168240                       # Class of control type instructions committed (Count)
system.cpu.commitStats0.committedControl::IsUncondControl      9262273                       # Class of control type instructions committed (Count)
system.cpu.commitStats0.committedControl::IsCall      2233036                       # Class of control type instructions committed (Count)
system.cpu.commitStats0.committedControl::IsReturn      2233031                       # Class of control type instructions committed (Count)
system.cpu.decode.idleCycles                 62640517                       # Number of cycles decode is idle (Cycle)
system.cpu.decode.blockedCycles               9668331                       # Number of cycles decode is blocked (Cycle)
system.cpu.decode.runCycles                  74809132                       # Number of cycles decode is running (Cycle)
system.cpu.decode.unblockCycles               2719227                       # Number of cycles decode is unblocking (Cycle)
system.cpu.decode.squashCycles                1433450                       # Number of cycles decode is squashing (Cycle)
system.cpu.decode.branchResolved             37246858                       # Number of times decode resolved a branch (Count)
system.cpu.decode.branchMispred                270692                       # Number of times decode detected a branch misprediction (Count)
system.cpu.decode.decodedInsts              477442334                       # Number of instructions handled by decode (Count)
system.cpu.decode.squashedInsts               2026230                       # Number of squashed instructions handled by decode (Count)
system.cpu.executeStats0.numInsts           433006314                       # Number of executed instructions (Count)
system.cpu.executeStats0.numNop                     0                       # Number of nop insts executed (Count)
system.cpu.executeStats0.numBranches         51906427                       # Number of branches executed (Count)
system.cpu.executeStats0.numLoadInsts        54397671                       # Number of load instructions executed (Count)
system.cpu.executeStats0.numStoreInsts       32121241                       # Number of stores executed (Count)
system.cpu.executeStats0.instRate            2.855588                       # Inst execution rate ((Count/Cycle))
system.cpu.executeStats0.numCCRegReads      219520434                       # Number of times the CC registers were read (Count)
system.cpu.executeStats0.numCCRegWrites     166331262                       # Number of times the CC registers were written (Count)
system.cpu.executeStats0.numFpRegReads        3178744                       # Number of times the floating registers were read (Count)
system.cpu.executeStats0.numFpRegWrites       2306316                       # Number of times the floating registers were written (Count)
system.cpu.executeStats0.numIntRegReads     465930177                       # Number of times the integer registers were read (Count)
system.cpu.executeStats0.numIntRegWrites    297315508                       # Number of times the integer registers were written (Count)
system.cpu.executeStats0.numMemRefs          86518912                       # Number of memory refs (Count)
system.cpu.executeStats0.numMiscRegReads    193479185                       # Number of times the Misc registers were read (Count)
system.cpu.executeStats0.numMiscRegWrites          738                       # Number of times the Misc registers were written (Count)
system.cpu.executeStats0.numVecAluAccesses            0                       # Number of vector alu accesses (Count)
system.cpu.executeStats0.numDiscardedOps            0                       # Number of ops (including micro ops) which were discarded before commit (Count)
system.cpu.fetch.predictedBranches           42131334                       # Number of branches that fetch has predicted taken (Count)
system.cpu.fetch.cycles                      87845497                       # Number of cycles fetch has run and was not squashing or blocked (Cycle)
system.cpu.fetch.squashCycles                 3408160                       # Number of cycles fetch has spent squashing (Cycle)
system.cpu.fetch.miscStallCycles                  231                       # Number of cycles fetch has spent waiting on interrupts, or bad addresses, or out of MSHRs (Cycle)
system.cpu.fetch.pendingTrapStallCycles          2042                       # Number of stall cycles due to pending traps (Cycle)
system.cpu.fetch.cacheLines                  47633868                       # Number of cache lines fetched (Count)
[...]
system.mem_ctrl.dram.bwRead::total          279786782                       # Total read bandwidth from this memory ((Byte/Second))
system.mem_ctrl.dram.bwInstRead::cpu.inst    145792718                       # Instruction read bandwidth from this memory ((Byte/Second))
system.mem_ctrl.dram.bwInstRead::total      145792718                       # Instruction read bandwidth from this memory ((Byte/Second))
system.mem_ctrl.dram.bwWrite::writebacks     38362873                       # Write bandwidth from this memory ((Byte/Second))
system.mem_ctrl.dram.bwWrite::total          38362873                       # Write bandwidth from this memory ((Byte/Second))
system.mem_ctrl.dram.bwTotal::writebacks     38362873                       # Total bandwidth to/from this memory ((Byte/Second))
system.mem_ctrl.dram.bwTotal::cpu.inst      145792718                       # Total bandwidth to/from this memory ((Byte/Second))
system.mem_ctrl.dram.bwTotal::cpu.data      133994064                       # Total bandwidth to/from this memory ((Byte/Second))
system.mem_ctrl.dram.bwTotal::total         318149655                       # Total bandwidth to/from this memory ((Byte/Second))
system.mem_ctrl.dram.readBursts                  3832                       # Number of DRAM read bursts (Count)
system.mem_ctrl.dram.writeBursts                  484                       # Number of DRAM write bursts (Count)
system.mem_ctrl.dram.perBankRdBursts::0           151                       # Per bank write bursts (Count)
system.mem_ctrl.dram.perBankRdBursts::1           271                       # Per bank write bursts (Count)
system.mem_ctrl.dram.perBankRdBursts::2           188                       # Per bank write bursts (Count)
system.mem_ctrl.dram.perBankRdBursts::3           133                       # Per bank write bursts (Count)
system.mem_ctrl.dram.perBankRdBursts::4           163                       # Per bank write bursts (Count)
system.mem_ctrl.dram.perBankRdBursts::5           519                       # Per bank write bursts (Count)
system.mem_ctrl.dram.perBankRdBursts::6           402                       # Per bank write bursts (Count)
system.mem_ctrl.dram.perBankRdBursts::7           103                       # Per bank write bursts (Count)
system.mem_ctrl.dram.perBankRdBursts::8           267                       # Per bank write bursts (Count)
system.mem_ctrl.dram.perBankRdBursts::9           202                       # Per bank write bursts (Count)
system.mem_ctrl.dram.perBankRdBursts::10          195                       # Per bank write bursts (Count)
system.mem_ctrl.dram.perBankRdBursts::11          254                       # Per bank write bursts (Count)
system.mem_ctrl.dram.perBankRdBursts::12          120                       # Per bank write bursts (Count)
system.mem_ctrl.dram.perBankRdBursts::13          435                       # Per bank write bursts (Count)
system.mem_ctrl.dram.perBankRdBursts::14          295                       # Per bank write bursts (Count)
system.mem_ctrl.dram.perBankRdBursts::15          134                       # Per bank write bursts (Count)
system.mem_ctrl.dram.perBankWrBursts::0            13                       # Per bank write bursts (Count)
system.mem_ctrl.dram.perBankWrBursts::1            20                       # Per bank write bursts (Count)
system.mem_ctrl.dram.perBankWrBursts::2            16                       # Per bank write bursts (Count)
system.mem_ctrl.dram.perBankWrBursts::3            11                       # Per bank write bursts (Count)
system.mem_ctrl.dram.perBankWrBursts::4            11                       # Per bank write bursts (Count)
system.mem_ctrl.dram.perBankWrBursts::5           143                       # Per bank write bursts (Count)
system.mem_ctrl.dram.perBankWrBursts::6            13                       # Per bank write bursts (Count)
system.mem_ctrl.dram.perBankWrBursts::7           118                       # Per bank write bursts (Count)
system.mem_ctrl.dram.perBankWrBursts::8            20                       # Per bank write bursts (Count)
system.mem_ctrl.dram.perBankWrBursts::9            18                       # Per bank write bursts (Count)
system.mem_ctrl.dram.perBankWrBursts::10           25                       # Per bank write bursts (Count)
system.mem_ctrl.dram.perBankWrBursts::11           33                       # Per bank write bursts (Count)
system.mem_ctrl.dram.perBankWrBursts::12           27                       # Per bank write bursts (Count)
system.mem_ctrl.dram.perBankWrBursts::13           14                       # Per bank write bursts (Count)
system.mem_ctrl.dram.perBankWrBursts::14            2                       # Per bank write bursts (Count)
system.mem_ctrl.dram.perBankWrBursts::15            0                       # Per bank write bursts (Count)
system.mem_ctrl.dram.totQLat                 52259725                       # Total ticks spent queuing (Tick)
system.mem_ctrl.dram.totBusLat               19160000                       # Total ticks spent in databus transfers (Tick)
system.mem_ctrl.dram.totMemAccLat           124109725                       # Total ticks spent from burst creation until serviced by the DRAM (Tick)
system.mem_ctrl.dram.avgQLat                 13637.72                       # Average queueing delay per DRAM burst ((Tick/Count))
system.mem_ctrl.dram.avgBusLat                5000.00                       # Average bus latency per DRAM burst ((Tick/Count))
system.mem_ctrl.dram.avgMemAccLat            32387.72                       # Average memory access latency per DRAM burst ((Tick/Count))
system.mem_ctrl.dram.readRowHits                 2308                       # Number of row buffer hits during reads (Count)
system.mem_ctrl.dram.writeRowHits                 391                       # Number of row buffer hits during writes (Count)
system.mem_ctrl.dram.readRowHitRate             60.23                       # Row buffer hit rate for reads (Ratio)
system.mem_ctrl.dram.writeRowHitRate            80.79                       # Row buffer hit rate for writes (Ratio)
system.mem_ctrl.dram.bytesPerActivate::samples         1613                       # Bytes accessed per row activation (Byte)
system.mem_ctrl.dram.bytesPerActivate::mean   170.375697                       # Bytes accessed per row activation (Byte)
system.mem_ctrl.dram.bytesPerActivate::gmean   123.618691                       # Bytes accessed per row activation (Byte)
system.mem_ctrl.dram.bytesPerActivate::stdev   174.405449                       # Bytes accessed per row activation (Byte)
system.mem_ctrl.dram.bytesPerActivate::0-127          735     45.57%     45.57% # Bytes accessed per row activation (Byte)
system.mem_ctrl.dram.bytesPerActivate::128-255          544     33.73%     79.29% # Bytes accessed per row activation (Byte)
system.mem_ctrl.dram.bytesPerActivate::256-383          163     10.11%     89.40% # Bytes accessed per row activation (Byte)
system.mem_ctrl.dram.bytesPerActivate::384-511           79      4.90%     94.30% # Bytes accessed per row activation (Byte)
system.mem_ctrl.dram.bytesPerActivate::512-639           33      2.05%     96.34% # Bytes accessed per row activation (Byte)
system.mem_ctrl.dram.bytesPerActivate::640-767           21      1.30%     97.64% # Bytes accessed per row activation (Byte)
system.mem_ctrl.dram.bytesPerActivate::768-895            8      0.50%     98.14% # Bytes accessed per row activation (Byte)
system.mem_ctrl.dram.bytesPerActivate::896-1023           10      0.62%     98.76% # Bytes accessed per row activation (Byte)
system.mem_ctrl.dram.bytesPerActivate::1024-1151           20      1.24%    100.00% # Bytes accessed per row activation (Byte)
system.mem_ctrl.dram.bytesPerActivate::total         1613                       # Bytes accessed per row activation (Byte)
system.mem_ctrl.dram.dramBytesRead             245248                       # Total bytes read (Byte)
system.mem_ctrl.dram.dramBytesWritten           30976                       # Total bytes written (Byte)
system.mem_ctrl.dram.avgRdBW               264.400234                       # Average DRAM read bandwidth in MiBytes/s ((Byte/Second))
system.mem_ctrl.dram.avgWrBW                33.395019                       # Average DRAM write bandwidth in MiBytes/s ((Byte/Second))
system.mem_ctrl.dram.peakBW                  12800.00                       # Theoretical peak bandwidth in MiByte/s ((Byte/Second))
system.mem_ctrl.dram.busUtil                     2.33                       # Data bus utilization in percentage (Ratio)
system.mem_ctrl.dram.busUtilRead                 2.07                       # Data bus utilization in percentage for reads (Ratio)
system.mem_ctrl.dram.busUtilWrite                0.26                       # Data bus utilization in percentage for writes (Ratio)
system.mem_ctrl.dram.pageHitRate                62.53                       # Row buffer hit rate, read and write combined (Ratio)
system.mem_ctrl.dram.power_state.pwrStateResidencyTicks::UNDEFINED    927563477                       # Cumulative time (in ticks) in various power states (Tick)
system.mem_ctrl.dram.rank0.actEnergy          6461700                       # Energy for activate commands per rank (pJ) (Joule)
system.mem_ctrl.dram.rank0.preEnergy          3426885                       # Energy for precharge commands per rank (pJ) (Joule)
system.mem_ctrl.dram.rank0.readEnergy        13780200                       # Energy for read commands per rank (pJ) (Joule)
system.mem_ctrl.dram.rank0.writeEnergy        1800900                       # Energy for write commands per rank (pJ) (Joule)
system.mem_ctrl.dram.rank0.refreshEnergy 73142160.000000                       # Energy for refresh commands per rank (pJ) (Joule)
system.mem_ctrl.dram.rank0.actBackEnergy    320452290                       # Energy for active background per rank (pJ) (Joule)
system.mem_ctrl.dram.rank0.preBackEnergy     86329920                       # Energy for precharge background per rank (pJ) (Joule)
system.mem_ctrl.dram.rank0.actPowerDownEnergy            0                       # Energy for active power-down per rank (pJ) (Joule)
system.mem_ctrl.dram.rank0.prePowerDownEnergy            0                       # Energy for precharge power-down per rank (pJ) (Joule)
system.mem_ctrl.dram.rank0.selfRefreshEnergy            0                       # Energy for self refresh per rank (pJ) (Joule)
system.mem_ctrl.dram.rank0.totalEnergy      505394055                       # Total energy per rank (pJ) (Joule)
system.mem_ctrl.dram.rank0.averagePower    544.861961                       # Core power per rank (mW) (Watt)
system.mem_ctrl.dram.rank0.totalIdleTime            0                       # Total Idle time Per DRAM Rank (Tick)
system.mem_ctrl.dram.rank0.pwrStateTime::IDLE    221476685                       # Time in different power states (Tick)
system.mem_ctrl.dram.rank0.pwrStateTime::REF     30940000                       # Time in different power states (Tick)
system.mem_ctrl.dram.rank0.pwrStateTime::SREF            0                       # Time in different power states (Tick)
system.mem_ctrl.dram.rank0.pwrStateTime::PRE_PDN            0                       # Time in different power states (Tick)
system.mem_ctrl.dram.rank0.pwrStateTime::ACT    675146792                       # Time in different power states (Tick)
system.mem_ctrl.dram.rank0.pwrStateTime::ACT_PDN            0                       # Time in different power states (Tick)
system.mem_ctrl.dram.rank1.actEnergy          5083680                       # Energy for activate commands per rank (pJ) (Joule)
system.mem_ctrl.dram.rank1.preEnergy          2694450                       # Energy for precharge commands per rank (pJ) (Joule)
system.mem_ctrl.dram.rank1.readEnergy        13580280                       # Energy for read commands per rank (pJ) (Joule)
system.mem_ctrl.dram.rank1.writeEnergy         725580                       # Energy for write commands per rank (pJ) (Joule)
system.mem_ctrl.dram.rank1.refreshEnergy 73142160.000000                       # Energy for refresh commands per rank (pJ) (Joule)
system.mem_ctrl.dram.rank1.actBackEnergy    356837670                       # Energy for active background per rank (pJ) (Joule)
system.mem_ctrl.dram.rank1.preBackEnergy     55689600                       # Energy for precharge background per rank (pJ) (Joule)
system.mem_ctrl.dram.rank1.actPowerDownEnergy            0                       # Energy for active power-down per rank (pJ) (Joule)
system.mem_ctrl.dram.rank1.prePowerDownEnergy            0                       # Energy for precharge power-down per rank (pJ) (Joule)
system.mem_ctrl.dram.rank1.selfRefreshEnergy            0                       # Energy for self refresh per rank (pJ) (Joule)
system.mem_ctrl.dram.rank1.totalEnergy      507753420                       # Total energy per rank (pJ) (Joule)
system.mem_ctrl.dram.rank1.averagePower    547.405577                       # Core power per rank (mW) (Watt)
system.mem_ctrl.dram.rank1.totalIdleTime            0                       # Total Idle time Per DRAM Rank (Tick)
system.mem_ctrl.dram.rank1.pwrStateTime::IDLE    141642401                       # Time in different power states (Tick)
system.mem_ctrl.dram.rank1.pwrStateTime::REF     30940000                       # Time in different power states (Tick)
system.mem_ctrl.dram.rank1.pwrStateTime::SREF            0                       # Time in different power states (Tick)
system.mem_ctrl.dram.rank1.pwrStateTime::PRE_PDN            0                       # Time in different power states (Tick)
system.mem_ctrl.dram.rank1.pwrStateTime::ACT    754981076                       # Time in different power states (Tick)
system.mem_ctrl.dram.rank1.pwrStateTime::ACT_PDN            0                       # Time in different power states (Tick)
system.mem_ctrl.power_state.pwrStateResidencyTicks::UNDEFINED    927563477                       # Cumulative time (in ticks) in various power states (Tick)
system.membus.transDist::ReadResp                3805                       # Transaction distribution (Count)
system.membus.transDist::WritebackDirty           556                       # Transaction distribution (Count)
system.membus.transDist::CleanEvict              3500                       # Transaction distribution (Count)
system.membus.transDist::UpgradeReq                 1                       # Transaction distribution (Count)
system.membus.transDist::ReadExReq                251                       # Transaction distribution (Count)
system.membus.transDist::ReadExResp               251                       # Transaction distribution (Count)
system.membus.transDist::ReadSharedReq           3805                       # Transaction distribution (Count)
system.membus.pktCount_system.cpu.l1d.mem_side_port::system.mem_ctrl.port         5827                       # Packet count per connected requestor and responder (Count)
system.membus.pktCount_system.cpu.l1d.mem_side_port::total         5827                       # Packet count per connected requestor and responder (Count)
system.membus.pktCount_system.cpu.l1i.mem_side_port::system.mem_ctrl.port         6341                       # Packet count per connected requestor and responder (Count)
system.membus.pktCount_system.cpu.l1i.mem_side_port::total         6341                       # Packet count per connected requestor and responder (Count)
system.membus.pktCount::total                   12168                       # Packet count per connected requestor and responder (Count)
system.membus.pktSize_system.cpu.l1d.mem_side_port::system.mem_ctrl.port       159872                       # Cumulative packet size per connected requestor and responder (Byte)
system.membus.pktSize_system.cpu.l1d.mem_side_port::total       159872                       # Cumulative packet size per connected requestor and responder (Byte)
system.membus.pktSize_system.cpu.l1i.mem_side_port::system.mem_ctrl.port       135232                       # Cumulative packet size per connected requestor and responder (Byte)
system.membus.pktSize_system.cpu.l1i.mem_side_port::total       135232                       # Cumulative packet size per connected requestor and responder (Byte)
system.membus.pktSize::total                   295104                       # Cumulative packet size per connected requestor and responder (Byte)
system.membus.snoops                                1                       # Total snoops (Count)
system.membus.snoopTraffic                         64                       # Total snoop traffic (Byte)
system.membus.snoopFanout::samples               4057                       # Request fanout histogram (Count)
system.membus.snoopFanout::mean              0.004930                       # Request fanout histogram (Count)
system.membus.snoopFanout::stdev             0.070048                       # Request fanout histogram (Count)
system.membus.snoopFanout::underflows               0      0.00%      0.00% # Request fanout histogram (Count)
system.membus.snoopFanout::0                     4037     99.51%     99.51% # Request fanout histogram (Count)
system.membus.snoopFanout::1                       20      0.49%    100.00% # Request fanout histogram (Count)
system.membus.snoopFanout::2                        0      0.00%    100.00% # Request fanout histogram (Count)
system.membus.snoopFanout::overflows                0      0.00%    100.00% # Request fanout histogram (Count)
system.membus.snoopFanout::min_value                0                       # Request fanout histogram (Count)
system.membus.snoopFanout::max_value                1                       # Request fanout histogram (Count)
system.membus.snoopFanout::total                 4057                       # Request fanout histogram (Count)
system.membus.power_state.pwrStateResidencyTicks::UNDEFINED    927563477                       # Cumulative time (in ticks) in various power states (Tick)
system.membus.reqLayer2.occupancy           137823221                       # Layer occupancy (ticks) (Tick)
system.membus.reqLayer2.utilization               0.1                       # Layer utilization (Ratio)
system.membus.respLayer2.occupancy          131497184                       # Layer occupancy (ticks) (Tick)
system.membus.respLayer2.utilization              0.1                       # Layer utilization (Ratio)
system.membus.respLayer3.occupancy          144584864                       # Layer occupancy (ticks) (Tick)
system.membus.respLayer3.utilization              0.2                       # Layer utilization (Ratio)
system.membus.snoop_filter.totRequests           8113                       # Total number of requests made to the snoop filter. (Count)
system.membus.snoop_filter.hitSingleRequests         4059                       # Number of requests hitting in the snoop filter with a single holder of the requested data. (Count)
system.membus.snoop_filter.hitMultiRequests           17                       # Number of requests hitting in the snoop filter with multiple (>1) holders of the requested data. (Count)
system.membus.snoop_filter.totSnoops                0                       # Total number of snoops made to the snoop filter. (Count)
system.membus.snoop_filter.hitSingleSnoops            0                       # Number of snoops hitting in the snoop filter with a single holder of the requested data. (Count)
system.membus.snoop_filter.hitMultiSnoops            0                       # Number of snoops hitting in the snoop filter with multiple (>1) holders of the requested data. (Count)
system.workload.inst.arm                            0                       # number of arm instructions executed (Count)
system.workload.inst.quiesce                        0                       # number of quiesce instructions executed (Count)

---------- End Simulation Statistics   ----------
