
---------- Begin Simulation Statistics ----------
simSeconds                                   0.017030                       # Number of seconds simulated (Second)
simTicks                                  17029907575                       # Number of ticks simulated (Tick)
finalTick                                 17029907575                       # Number of ticks from beginning of simulation (restored from checkpoints and never reset) (Tick)
simFreq                                  1000000000000                       # The number of ticks per simulated second ((Tick/Second))
hostSeconds                                     97.73                       # Real time elapsed on the host (Second)
hostTickRate                                174250381                       # The number of ticks simulated per host second (ticks/s) ((Tick/Second))
hostMemory                                    8630560                       # Number of bytes of host memory used (Byte)
simInsts                                      2317878                       # Number of instructions simulated (Count)
simOps                                        4039671                       # Number of ops (including micro ops) simulated (Count)
hostInstRate                                    23713                       # Simulator instruction rate (inst/s) ((Count/Second))
hostOpRate                                      41327                       # Simulator op (including micro ops) rate (op/s) ((Count/Second))
system.clk_domain.clock                         13333                       # Clock period in ticks (Tick)
system.clk_domain.voltage_domain.voltage            1                       # Voltage in Volts (Volt)
system.cpu.numCycles                          1277276                       # Number of cpu cycles simulated (Cycle)
system.cpu.cpi                               0.551054                       # CPI: cycles per instruction (core level) ((Cycle/Count))
system.cpu.ipc                               1.814704                       # IPC: instructions per cycle (core level) ((Count/Cycle))
system.cpu.numWorkItemsStarted                      0                       # Number of work items this cpu started (Count)
system.cpu.numWorkItemsCompleted                    0                       # Number of work items this cpu completed (Count)
system.cpu.instsAdded                         4904108                       # Number of instructions added to the IQ (excludes non-spec) (Count)
system.cpu.nonSpecInstsAdded                     2685                       # Number of non-speculative instructions added to the IQ (Count)
system.cpu.instsIssued                        4619528                       # Number of instructions issued (Count)
system.cpu.squashedInstsIssued                   9343                       # Number of squashed instructions issued (Count)
system.cpu.squashedInstsExamined               867088                       # Number of squashed instructions iterated over during squash; mainly for profiling (Count)
system.cpu.squashedOperandsExamined           1533700                       # Number of squashed operands that are examined and possibly removed from graph (Count)
system.cpu.squashedNonSpecRemoved                 206                       # Number of squashed non-spec instructions that were removed (Count)
system.cpu.numIssuedDist::samples             1276070                       # Number of insts issued each cycle (Count)
system.cpu.numIssuedDist::mean               3.620121                       # Number of insts issued each cycle (Count)
system.cpu.numIssuedDist::stdev              2.552347                       # Number of insts issued each cycle (Count)
system.cpu.numIssuedDist::underflows                0      0.00%      0.00% # Number of insts issued each cycle (Count)
system.cpu.numIssuedDist::0                    237404     18.60%     18.60% # Number of insts issued each cycle (Count)
system.cpu.numIssuedDist::1                     84381      6.61%     25.22% # Number of insts issued each cycle (Count)
system.cpu.numIssuedDist::2                    126373      9.90%     35.12% # Number of insts issued each cycle (Count)
system.cpu.numIssuedDist::3                    186866     14.64%     49.76% # Number of insts issued each cycle (Count)
system.cpu.numIssuedDist::4                    139517     10.93%     60.70% # Number of insts issued each cycle (Count)
system.cpu.numIssuedDist::5                    144763     11.34%     72.04% # Number of insts issued each cycle (Count)
system.cpu.numIssuedDist::6                    146626     11.49%     83.53% # Number of insts issued each cycle (Count)
system.cpu.numIssuedDist::7                    120956      9.48%     93.01% # Number of insts issued each cycle (Count)
system.cpu.numIssuedDist::8                     89184      6.99%    100.00% # Number of insts issued each cycle (Count)
system.cpu.numIssuedDist::overflows                 0      0.00%    100.00% # Number of insts issued each cycle (Count)
system.cpu.numIssuedDist::min_value                 0                       # Number of insts issued each cycle (Count)
system.cpu.numIssuedDist::max_value                 8                       # Number of insts issued each cycle (Count)
system.cpu.numIssuedDist::total               1276070                       # Number of insts issued each cycle (Count)
system.cpu.statFuBusy::No_OpClass                   0      0.00%      0.00% # attempts to use FU when none available (Count)
system.cpu.statFuBusy::IntAlu                  101310     78.35%     78.35% # attempts to use FU when none available (Count)
system.cpu.statFuBusy::IntMult                      0      0.00%     78.35% # attempts to use FU when none available (Count)
system.cpu.statFuBusy::IntDiv                       0      0.00%     78.35% # attempts to use FU when none available (Count)
system.cpu.statFuBusy::FloatAdd                     0      0.00%     78.35% # attempts to use FU when none available (Count)
system.cpu.statFuBusy::FloatCmp                     0      0.00%     78.35% # attempts to use FU when none available (Count)
system.cpu.statFuBusy::FloatCvt                     0      0.00%     78.35% # attempts to use FU when none available (Count)
system.cpu.statFuBusy::FloatMult                    0      0.00%     78.35% # attempts to use FU when none available (Count)
system.cpu.statFuBusy::FloatMultAcc                 0      0.00%     78.35% # attempts to use FU when none available (Count)
system.cpu.statFuBusy::FloatDiv                     0      0.00%     78.35% # attempts to use FU when none available (Count)
system.cpu.statFuBusy::FloatMisc                    0      0.00%     78.35% # attempts to use FU when none available (Count)
system.cpu.statFuBusy::FloatSqrt                    0      0.00%     78.35% # attempts to use FU when none available (Count)
system.cpu.statFuBusy::SimdAdd                     14      0.01%     78.36% # attempts to use FU when none available (Count)
system.cpu.statFuBusy::SimdAddAcc                   0      0.00%     78.36% # attempts to use FU when none available (Count)
system.cpu.statFuBusy::SimdAlu                    100      0.08%     78.43% # attempts to use FU when none available (Count)
system.cpu.statFuBusy::SimdCmp                      1      0.00%     78.43% # attempts to use FU when none available (Count)
system.cpu.statFuBusy::SimdCvt                    140      0.11%     78.54% # attempts to use FU when none available (Count)
system.cpu.statFuBusy::SimdMisc                    35      0.03%     78.57% # attempts to use FU when none available (Count)
system.cpu.statFuBusy::SimdMult                     0      0.00%     78.57% # attempts to use FU when none available (Count)
system.cpu.statFuBusy::SimdMultAcc                  0      0.00%     78.57% # attempts to use FU when none available (Count)
system.cpu.statFuBusy::SimdMatMultAcc               0      0.00%     78.57% # attempts to use FU when none available (Count)
system.cpu.statFuBusy::SimdShift                   14      0.01%     78.58% # attempts to use FU when none available (Count)
system.cpu.statFuBusy::SimdShiftAcc                 0      0.00%     78.58% # attempts to use FU when none available (Count)
system.cpu.statFuBusy::SimdDiv                      0      0.00%     78.58% # attempts to use FU when none available (Count)
system.cpu.statFuBusy::SimdSqrt                     0      0.00%     78.58% # attempts to use FU when none available (Count)
system.cpu.statFuBusy::SimdFloatAdd                 0      0.00%     78.58% # attempts to use FU when none available (Count)
system.cpu.statFuBusy::SimdFloatAlu                 0      0.00%     78.58% # attempts to use FU when none available (Count)
system.cpu.statFuBusy::SimdFloatCmp                 0      0.00%     78.58% # attempts to use FU when none available (Count)
system.cpu.statFuBusy::SimdFloatCvt                 0      0.00%     78.58% # attempts to use FU when none available (Count)
system.cpu.statFuBusy::SimdFloatDiv                 0      0.00%     78.58% # attempts to use FU when none available (Count)
system.cpu.statFuBusy::SimdFloatMisc                0      0.00%     78.58% # attempts to use FU when none available (Count)
system.cpu.statFuBusy::SimdFloatMult                0      0.00%     78.58% # attempts to use FU when none available (Count)
system.cpu.statFuBusy::SimdFloatMultAcc             0      0.00%     78.58% # attempts to use FU when none available (Count)
system.cpu.statFuBusy::SimdFloatMatMultAcc            0      0.00%     78.58% # attempts to use FU when none available (Count)
system.cpu.statFuBusy::SimdFloatSqrt                0      0.00%     78.58% # attempts to use FU when none available (Count)
system.cpu.statFuBusy::SimdReduceAdd                0      0.00%     78.58% # attempts to use FU when none available (Count)
system.cpu.statFuBusy::SimdReduceAlu                0      0.00%     78.58% # attempts to use FU when none available (Count)
system.cpu.statFuBusy::SimdReduceCmp                0      0.00%     78.58% # attempts to use FU when none available (Count)
system.cpu.statFuBusy::SimdFloatReduceAdd            0      0.00%     78.58% # attempts to use FU when none available (Count)
system.cpu.statFuBusy::SimdFloatReduceCmp            0      0.00%     78.58% # attempts to use FU when none available (Count)
system.cpu.statFuBusy::SimdAes                      0      0.00%     78.58% # attempts to use FU when none available (Count)
system.cpu.statFuBusy::SimdAesMix                   0      0.00%     78.58% # attempts to use FU when none available (Count)
system.cpu.statFuBusy::SimdSha1Hash                 0      0.00%     78.58% # attempts to use FU when none available (Count)
system.cpu.statFuBusy::SimdSha1Hash2                0      0.00%     78.58% # attempts to use FU when none available (Count)
system.cpu.statFuBusy::SimdSha256Hash               0      0.00%     78.58% # attempts to use FU when none available (Count)
system.cpu.statFuBusy::SimdSha256Hash2              0      0.00%     78.58% # attempts to use FU when none available (Count)
system.cpu.statFuBusy::SimdShaSigma2                0      0.00%     78.58% # attempts to use FU when none available (Count)
system.cpu.statFuBusy::SimdShaSigma3                0      0.00%     78.58% # attempts to use FU when none available (Count)
system.cpu.statFuBusy::SimdPredAlu                  0      0.00%     78.58% # attempts to use FU when none available (Count)
system.cpu.statFuBusy::Matrix                       0      0.00%     78.58% # attempts to use FU when none available (Count)
system.cpu.statFuBusy::MatrixMov                    0      0.00%     78.58% # attempts to use FU when none available (Count)
system.cpu.statFuBusy::MatrixOP                     0      0.00%     78.58% # attempts to use FU when none available (Count)
system.cpu.statFuBusy::MemRead                  14629     11.31%     89.89% # attempts to use FU when none available (Count)
system.cpu.statFuBusy::MemWrite                 11862      9.17%     99.07% # attempts to use FU when none available (Count)
system.cpu.statFuBusy::FloatMemRead               760      0.59%     99.66% # attempts to use FU when none available (Count)
system.cpu.statFuBusy::FloatMemWrite              446      0.34%    100.00% # attempts to use FU when none available (Count)
system.cpu.statFuBusy::IprAccess                    0      0.00%    100.00% # attempts to use FU when none available (Count)
system.cpu.statFuBusy::InstPrefetch                 0      0.00%    100.00% # attempts to use FU when none available (Count)
system.cpu.statFuBusy::SimdUnitStrideLoad            0      0.00%    100.00% # attempts to use FU when none available (Count)
system.cpu.statFuBusy::SimdUnitStrideStore            0      0.00%    100.00% # attempts to use FU when none available (Count)
system.cpu.statFuBusy::SimdUnitStrideMaskLoad            0      0.00%    100.00% # attempts to use FU when none available (Count)
system.cpu.statFuBusy::SimdUnitStrideMaskStore            0      0.00%    100.00% # attempts to use FU when none available (Count)
system.cpu.statFuBusy::SimdStridedLoad              0      0.00%    100.00% # attempts to use FU when none available (Count)
system.cpu.statFuBusy::SimdStridedStore             0      0.00%    100.00% # attempts to use FU when none available (Count)
system.cpu.statFuBusy::SimdIndexedLoad              0      0.00%    100.00% # attempts to use FU when none available (Count)
system.cpu.statFuBusy::SimdIndexedStore             0      0.00%    100.00% # attempts to use FU when none available (Count)
system.cpu.statFuBusy::SimdWholeRegisterLoad            0      0.00%    100.00% # attempts to use FU when none available (Count)
system.cpu.statFuBusy::SimdWholeRegisterStore            0      0.00%    100.00% # attempts to use FU when none available (Count)
system.cpu.statFuBusy::SimdUnitStrideFaultOnlyFirstLoad            0      0.00%    100.00% # attempts to use FU when none available (Count)
system.cpu.statFuBusy::SimdUnitStrideSegmentedLoad            0      0.00%    100.00% # attempts to use FU when none available (Count)
system.cpu.statFuBusy::SimdUnitStrideSegmentedStore            0      0.00%    100.00% # attempts to use FU when none available (Count)
system.cpu.statFuBusy::SimdExt                      0      0.00%    100.00% # attempts to use FU when none available (Count)
system.cpu.statFuBusy::SimdFloatExt                 0      0.00%    100.00% # attempts to use FU when none available (Count)
system.cpu.statFuBusy::SimdConfig                   0      0.00%    100.00% # attempts to use FU when none available (Count)
system.cpu.statIssuedInstType_0::No_OpClass        29766      0.64%      0.64% # Number of instructions issued per FU type, per thread (Count)
system.cpu.statIssuedInstType_0::IntAlu       3565997     77.19%     77.84% # Number of instructions issued per FU type, per thread (Count)
system.cpu.statIssuedInstType_0::IntMult          145      0.00%     77.84% # Number of instructions issued per FU type, per thread (Count)
system.cpu.statIssuedInstType_0::IntDiv         43091      0.93%     78.77% # Number of instructions issued per FU type, per thread (Count)
system.cpu.statIssuedInstType_0::FloatAdd         9248      0.20%     78.97% # Number of instructions issued per FU type, per thread (Count)
system.cpu.statIssuedInstType_0::FloatCmp            0      0.00%     78.97% # Number of instructions issued per FU type, per thread (Count)
system.cpu.statIssuedInstType_0::FloatCvt         1712      0.04%     79.01% # Number of instructions issued per FU type, per thread (Count)
system.cpu.statIssuedInstType_0::FloatMult            0      0.00%     79.01% # Number of instructions issued per FU type, per thread (Count)
system.cpu.statIssuedInstType_0::FloatMultAcc            0      0.00%     79.01% # Number of instructions issued per FU type, per thread (Count)
system.cpu.statIssuedInstType_0::FloatDiv            0      0.00%     79.01% # Number of instructions issued per FU type, per thread (Count)
system.cpu.statIssuedInstType_0::FloatMisc            0      0.00%     79.01% # Number of instructions issued per FU type, per thread (Count)
system.cpu.statIssuedInstType_0::FloatSqrt            0      0.00%     79.01% # Number of instructions issued per FU type, per thread (Count)
system.cpu.statIssuedInstType_0::SimdAdd         7708      0.17%     79.18% # Number of instructions issued per FU type, per thread (Count)
system.cpu.statIssuedInstType_0::SimdAddAcc            0      0.00%     79.18% # Number of instructions issued per FU type, per thread (Count)
system.cpu.statIssuedInstType_0::SimdAlu        17153      0.37%     79.55% # Number of instructions issued per FU type, per thread (Count)
system.cpu.statIssuedInstType_0::SimdCmp           11      0.00%     79.55% # Number of instructions issued per FU type, per thread (Count)
system.cpu.statIssuedInstType_0::SimdCvt        16452      0.36%     79.91% # Number of instructions issued per FU type, per thread (Count)
system.cpu.statIssuedInstType_0::SimdMisc        15442      0.33%     80.24% # Number of instructions issued per FU type, per thread (Count)
system.cpu.statIssuedInstType_0::SimdMult            0      0.00%     80.24% # Number of instructions issued per FU type, per thread (Count)
system.cpu.statIssuedInstType_0::SimdMultAcc            0      0.00%     80.24% # Number of instructions issued per FU type, per thread (Count)
system.cpu.statIssuedInstType_0::SimdMatMultAcc            0      0.00%     80.24% # Number of instructions issued per FU type, per thread (Count)
system.cpu.statIssuedInstType_0::SimdShift         3374      0.07%     80.31% # Number of instructions issued per FU type, per thread (Count)
system.cpu.statIssuedInstType_0::SimdShiftAcc            0      0.00%     80.31% # Number of instructions issued per FU type, per thread (Count)
system.cpu.statIssuedInstType_0::SimdDiv            0      0.00%     80.31% # Number of instructions issued per FU type, per thread (Count)
system.cpu.statIssuedInstType_0::SimdSqrt            0      0.00%     80.31% # Number of instructions issued per FU type, per thread (Count)
system.cpu.statIssuedInstType_0::SimdFloatAdd            1      0.00%     80.31% # Number of instructions issued per FU type, per thread (Count)
system.cpu.statIssuedInstType_0::SimdFloatAlu            0      0.00%     80.31% # Number of instructions issued per FU type, per thread (Count)
system.cpu.statIssuedInstType_0::SimdFloatCmp            0      0.00%     80.31% # Number of instructions issued per FU type, per thread (Count)
system.cpu.statIssuedInstType_0::SimdFloatCvt            4      0.00%     80.31% # Number of instructions issued per FU type, per thread (Count)
system.cpu.statIssuedInstType_0::SimdFloatDiv            1      0.00%     80.31% # Number of instructions issued per FU type, per thread (Count)
system.cpu.statIssuedInstType_0::SimdFloatMisc            0      0.00%     80.31% # Number of instructions issued per FU type, per thread (Count)
system.cpu.statIssuedInstType_0::SimdFloatMult            0      0.00%     80.31% # Number of instructions issued per FU type, per thread (Count)
system.cpu.statIssuedInstType_0::SimdFloatMultAcc            0      0.00%     80.31% # Number of instructions issued per FU type, per thread (Count)
system.cpu.statIssuedInstType_0::SimdFloatMatMultAcc            0      0.00%     80.31% # Number of instructions issued per FU type, per thread (Count)
system.cpu.statIssuedInstType_0::SimdFloatSqrt            0      0.00%     80.31% # Number of instructions issued per FU type, per thread (Count)
system.cpu.statIssuedInstType_0::SimdReduceAdd            0      0.00%     80.31% # Number of instructions issued per FU type, per thread (Count)
system.cpu.statIssuedInstType_0::SimdReduceAlu            0      0.00%     80.31% # Number of instructions issued per FU type, per thread (Count)
system.cpu.statIssuedInstType_0::SimdReduceCmp            0      0.00%     80.31% # Number of instructions issued per FU type, per thread (Count)
system.cpu.statIssuedInstType_0::SimdFloatReduceAdd            0      0.00%     80.31% # Number of instructions issued per FU type, per thread (Count)
system.cpu.statIssuedInstType_0::SimdFloatReduceCmp            0      0.00%     80.31% # Number of instructions issued per FU type, per thread (Count)
system.cpu.statIssuedInstType_0::SimdAes            0      0.00%     80.31% # Number of instructions issued per FU type, per thread (Count)
system.cpu.statIssuedInstType_0::SimdAesMix            0      0.00%     80.31% # Number of instructions issued per FU type, per thread (Count)
system.cpu.statIssuedInstType_0::SimdSha1Hash            0      0.00%     80.31% # Number of instructions issued per FU type, per thread (Count)
system.cpu.statIssuedInstType_0::SimdSha1Hash2            0      0.00%     80.31% # Number of instructions issued per FU type, per thread (Count)
system.cpu.statIssuedInstType_0::SimdSha256Hash            0      0.00%     80.31% # Number of instructions issued per FU type, per thread (Count)
system.cpu.statIssuedInstType_0::SimdSha256Hash2            0      0.00%     80.31% # Number of instructions issued per FU type, per thread (Count)
system.cpu.statIssuedInstType_0::SimdShaSigma2            0      0.00%     80.31% # Number of instructions issued per FU type, per thread (Count)
system.cpu.statIssuedInstType_0::SimdShaSigma3            0      0.00%     80.31% # Number of instructions issued per FU type, per thread (Count)
system.cpu.statIssuedInstType_0::SimdPredAlu            0      0.00%     80.31% # Number of instructions issued per FU type, per thread (Count)
system.cpu.statIssuedInstType_0::Matrix             0      0.00%     80.31% # Number of instructions issued per FU type, per thread (Count)
system.cpu.statIssuedInstType_0::MatrixMov            0      0.00%     80.31% # Number of instructions issued per FU type, per thread (Count)
system.cpu.statIssuedInstType_0::MatrixOP            0      0.00%     80.31% # Number of instructions issued per FU type, per thread (Count)
system.cpu.statIssuedInstType_0::MemRead       612450     13.26%     93.57% # Number of instructions issued per FU type, per thread (Count)
system.cpu.statIssuedInstType_0::MemWrite       253586      5.49%     99.06% # Number of instructions issued per FU type, per thread (Count)
system.cpu.statIssuedInstType_0::FloatMemRead        26471      0.57%     99.63% # Number of instructions issued per FU type, per thread (Count)
system.cpu.statIssuedInstType_0::FloatMemWrite        16916      0.37%    100.00% # Number of instructions issued per FU type, per thread (Count)
system.cpu.statIssuedInstType_0::IprAccess            0      0.00%    100.00% # Number of instructions issued per FU type, per thread (Count)
system.cpu.statIssuedInstType_0::InstPrefetch            0      0.00%    100.00% # Number of instructions issued per FU type, per thread (Count)
system.cpu.statIssuedInstType_0::SimdUnitStrideLoad            0      0.00%    100.00% # Number of instructions issued per FU type, per thread (Count)
system.cpu.statIssuedInstType_0::SimdUnitStrideStore            0      0.00%    100.00% # Number of instructions issued per FU type, per thread (Count)
system.cpu.statIssuedInstType_0::SimdUnitStrideMaskLoad            0      0.00%    100.00% # Number of instructions issued per FU type, per thread (Count)
system.cpu.statIssuedInstType_0::SimdUnitStrideMaskStore            0      0.00%    100.00% # Number of instructions issued per FU type, per thread (Count)
system.cpu.statIssuedInstType_0::SimdStridedLoad            0      0.00%    100.00% # Number of instructions issued per FU type, per thread (Count)
system.cpu.statIssuedInstType_0::SimdStridedStore            0      0.00%    100.00% # Number of instructions issued per FU type, per thread (Count)
system.cpu.statIssuedInstType_0::SimdIndexedLoad            0      0.00%    100.00% # Number of instructions issued per FU type, per thread (Count)
system.cpu.statIssuedInstType_0::SimdIndexedStore            0      0.00%    100.00% # Number of instructions issued per FU type, per thread (Count)
system.cpu.statIssuedInstType_0::SimdWholeRegisterLoad            0      0.00%    100.00% # Number of instructions issued per FU type, per thread (Count)
system.cpu.statIssuedInstType_0::SimdWholeRegisterStore            0      0.00%    100.00% # Number of instructions issued per FU type, per thread (Count)
system.cpu.statIssuedInstType_0::SimdUnitStrideFaultOnlyFirstLoad            0      0.00%    100.00% # Number of instructions issued per FU type, per thread (Count)
system.cpu.statIssuedInstType_0::SimdUnitStrideSegmentedLoad            0      0.00%    100.00% # Number of instructions issued per FU type, per thread (Count)
system.cpu.statIssuedInstType_0::SimdUnitStrideSegmentedStore            0      0.00%    100.00% # Number of instructions issued per FU type, per thread (Count)
system.cpu.statIssuedInstType_0::SimdExt            0      0.00%    100.00% # Number of instructions issued per FU type, per thread (Count)
system.cpu.statIssuedInstType_0::SimdFloatExt            0      0.00%    100.00% # Number of instructions issued per FU type, per thread (Count)
system.cpu.statIssuedInstType_0::SimdConfig            0      0.00%    100.00% # Number of instructions issued per FU type, per thread (Count)
system.cpu.statIssuedInstType_0::total        4619528                       # Number of instructions issued per FU type, per thread (Count)
system.cpu.issueRate                         3.616703                       # Inst issue rate ((Count/Cycle))
system.cpu.fuBusy                              129311                       # FU busy when requested (Count)
system.cpu.fuBusyRate                        0.027992                       # FU busy rate (busy events/executed inst) ((Count/Count))
system.cpu.intInstQueueReads                 10413040                       # Number of integer instruction queue reads (Count)
system.cpu.intInstQueueWrites                 5595439                       # Number of integer instruction queue writes (Count)
system.cpu.intInstQueueWakeupAccesses         4448241                       # Number of integer instruction queue wakeup accesses (Count)
system.cpu.fpInstQueueReads                    240737                       # Number of floating instruction queue reads (Count)
system.cpu.fpInstQueueWrites                   178607                       # Number of floating instruction queue writes (Count)
system.cpu.fpInstQueueWakeupAccesses           114526                       # Number of floating instruction queue wakeup accesses (Count)
system.cpu.vecInstQueueReads                        0                       # Number of vector instruction queue reads (Count)
system.cpu.vecInstQueueWrites                       0                       # Number of vector instruction queue writes (Count)
system.cpu.vecInstQueueWakeupAccesses               0                       # Number of vector instruction queue wakeup accesses (Count)
system.cpu.intAluAccesses                     4598233                       # Number of integer alu accesses (Count)
system.cpu.fpAluAccesses                       120840                       # Number of floating point alu accesses (Count)
system.cpu.vecAluAccesses                           0                       # Number of vector alu accesses (Count)
system.cpu.numSquashedInsts                     36471                       # Number of squashed instructions skipped in execute (Count)
system.cpu.numSwp                                   0                       # Number of swp insts executed (Count)
system.cpu.timesIdled                             386                       # Number of times that the entire CPU went into an idle state and unscheduled itself (Count)
system.cpu.idleCycles                            1206                       # Total number of cycles that the CPU has spent unscheduled due to idling (Cycle)
system.cpu.MemDepUnit__0.insertedLoads         671300                       # Number of loads inserted to the mem dependence unit. (Count)
system.cpu.MemDepUnit__0.insertedStores        287047                       # Number of stores inserted to the mem dependence unit. (Count)
system.cpu.MemDepUnit__0.conflictingLoads        20489                       # Number of conflicting loads. (Count)
system.cpu.MemDepUnit__0.conflictingStores        11287                       # Number of conflicting stores. (Count)
system.cpu.MemDepUnit__1.insertedLoads              0                       # Number of loads inserted to the mem dependence unit. (Count)
system.cpu.MemDepUnit__1.insertedStores             0                       # Number of stores inserted to the mem dependence unit. (Count)
system.cpu.MemDepUnit__1.conflictingLoads            0                       # Number of conflicting loads. (Count)
system.cpu.MemDepUnit__1.conflictingStores            0                       # Number of conflicting stores. (Count)
system.cpu.MemDepUnit__2.insertedLoads              0                       # Number of loads inserted to the mem dependence unit. (Count)
system.cpu.MemDepUnit__2.insertedStores             0                       # Number of stores inserted to the mem dependence unit. (Count)
system.cpu.MemDepUnit__2.conflictingLoads            0                       # Number of conflicting loads. (Count)
system.cpu.MemDepUnit__2.conflictingStores            0                       # Number of conflicting stores. (Count)
system.cpu.MemDepUnit__3.insertedLoads              0                       # Number of loads inserted to the mem dependence unit. (Count)
system.cpu.MemDepUnit__3.insertedStores             0                       # Number of stores inserted to the mem dependence unit. (Count)
system.cpu.MemDepUnit__3.conflictingLoads            0                       # Number of conflicting loads. (Count)
system.cpu.MemDepUnit__3.conflictingStores            0                       # Number of conflicting stores. (Count)
system.cpu.branchPred.lookups_0::NoBranch         2764      0.53%      0.53% # Number of BP lookups (Count)
system.cpu.branchPred.lookups_0::Return         16419      3.18%      3.71% # Number of BP lookups (Count)
system.cpu.branchPred.lookups_0::CallDirect        21650      4.19%      7.90% # Number of BP lookups (Count)
system.cpu.branchPred.lookups_0::CallIndirect         1499      0.29%      8.19% # Number of BP lookups (Count)
system.cpu.branchPred.lookups_0::DirectCond       438333     84.78%     92.97% # Number of BP lookups (Count)
system.cpu.branchPred.lookups_0::DirectUncond        22555      4.36%     97.33% # Number of BP lookups (Count)
system.cpu.branchPred.lookups_0::IndirectCond            0      0.00%     97.33% # Number of BP lookups (Count)
system.cpu.branchPred.lookups_0::IndirectUncond        13794      2.67%    100.00% # Number of BP lookups (Count)
system.cpu.branchPred.lookups_0::total         517014                       # Number of BP lookups (Count)
system.cpu.branchPred.squashes_0::NoBranch         2531      1.80%      1.80% # Number of branches that got squashed (completely removed) as an earlier branch was mispredicted. (Count)
system.cpu.branchPred.squashes_0::Return         3772      2.68%      4.48% # Number of branches that got squashed (completely removed) as an earlier branch was mispredicted. (Count)
system.cpu.branchPred.squashes_0::CallDirect         9631      6.85%     11.33% # Number of branches that got squashed (completely removed) as an earlier branch was mispredicted. (Count)
system.cpu.branchPred.squashes_0::CallIndirect          866      0.62%     11.95% # Number of branches that got squashed (completely removed) as an earlier branch was mispredicted. (Count)
system.cpu.branchPred.squashes_0::DirectCond       107849     76.69%     88.63% # Number of branches that got squashed (completely removed) as an earlier branch was mispredicted. (Count)
system.cpu.branchPred.squashes_0::DirectUncond         7548      5.37%     94.00% # Number of branches that got squashed (completely removed) as an earlier branch was mispredicted. (Count)
system.cpu.branchPred.squashes_0::IndirectCond            0      0.00%     94.00% # Number of branches that got squashed (completely removed) as an earlier branch was mispredicted. (Count)
system.cpu.branchPred.squashes_0::IndirectUncond         8436      6.00%    100.00% # Number of branches that got squashed (completely removed) as an earlier branch was mispredicted. (Count)
system.cpu.branchPred.squashes_0::total        140633                       # Number of branches that got squashed (completely removed) as an earlier branch was mispredicted. (Count)
system.cpu.branchPred.corrected_0::NoBranch          402      2.34%      2.34% # Number of branches that got corrected but not yet commited. Branches get corrected by decode or after execute. Also a branch misprediction can be detected out-of-order. Therefore, a corrected branch might not end up beeing committed in case an even earlier branch was mispredicted (Count)
system.cpu.branchPred.corrected_0::Return            6      0.03%      2.38% # Number of branches that got corrected but not yet commited. Branches get corrected by decode or after execute. Also a branch misprediction can be detected out-of-order. Therefore, a corrected branch might not end up beeing committed in case an even earlier branch was mispredicted (Count)
system.cpu.branchPred.corrected_0::CallDirect          828      4.82%      7.20% # Number of branches that got corrected but not yet commited. Branches get corrected by decode or after execute. Also a branch misprediction can be detected out-of-order. Therefore, a corrected branch might not end up beeing committed in case an even earlier branch was mispredicted (Count)
system.cpu.branchPred.corrected_0::CallIndirect          268      1.56%      8.76% # Number of branches that got corrected but not yet commited. Branches get corrected by decode or after execute. Also a branch misprediction can be detected out-of-order. Therefore, a corrected branch might not end up beeing committed in case an even earlier branch was mispredicted (Count)
system.cpu.branchPred.corrected_0::DirectCond        13715     79.91%     88.67% # Number of branches that got corrected but not yet commited. Branches get corrected by decode or after execute. Also a branch misprediction can be detected out-of-order. Therefore, a corrected branch might not end up beeing committed in case an even earlier branch was mispredicted (Count)
system.cpu.branchPred.corrected_0::DirectUncond          675      3.93%     92.61% # Number of branches that got corrected but not yet commited. Branches get corrected by decode or after execute. Also a branch misprediction can be detected out-of-order. Therefore, a corrected branch might not end up beeing committed in case an even earlier branch was mispredicted (Count)
system.cpu.branchPred.corrected_0::IndirectCond            0      0.00%     92.61% # Number of branches that got corrected but not yet commited. Branches get corrected by decode or after execute. Also a branch misprediction can be detected out-of-order. Therefore, a corrected branch might not end up beeing committed in case an even earlier branch was mispredicted (Count)
system.cpu.branchPred.corrected_0::IndirectUncond         1269      7.39%    100.00% # Number of branches that got corrected but not yet commited. Branches get corrected by decode or after execute. Also a branch misprediction can be detected out-of-order. Therefore, a corrected branch might not end up beeing committed in case an even earlier branch was mispredicted (Count)
system.cpu.branchPred.corrected_0::total        17163                       # Number of branches that got corrected but not yet commited. Branches get corrected by decode or after execute. Also a branch misprediction can be detected out-of-order. Therefore, a corrected branch might not end up beeing committed in case an even earlier branch was mispredicted (Count)
system.cpu.branchPred.earlyResteers_0::NoBranch            0                       # Number of branches that got redirected after decode. (Count)
system.cpu.branchPred.earlyResteers_0::Return            0                       # Number of branches that got redirected after decode. (Count)
system.cpu.branchPred.earlyResteers_0::CallDirect            0                       # Number of branches that got redirected after decode. (Count)
system.cpu.branchPred.earlyResteers_0::CallIndirect            0                       # Number of branches that got redirected after decode. (Count)
system.cpu.branchPred.earlyResteers_0::DirectCond            0                       # Number of branches that got redirected after decode. (Count)
system.cpu.branchPred.earlyResteers_0::DirectUncond            0                       # Number of branches that got redirected after decode. (Count)
system.cpu.branchPred.earlyResteers_0::IndirectCond            0                       # Number of branches that got redirected after decode. (Count)
system.cpu.branchPred.earlyResteers_0::IndirectUncond            0                       # Number of branches that got redirected after decode. (Count)
system.cpu.branchPred.earlyResteers_0::total            0                       # Number of branches that got redirected after decode. (Count)
system.cpu.branchPred.committed_0::NoBranch          233      0.06%      0.06% # Number of branches finally committed  (Count)
system.cpu.branchPred.committed_0::Return        12645      3.36%      3.42% # Number of branches finally committed  (Count)
system.cpu.branchPred.committed_0::CallDirect        12019      3.19%      6.61% # Number of branches finally committed  (Count)
system.cpu.branchPred.committed_0::CallIndirect          633      0.17%      6.78% # Number of branches finally committed  (Count)
system.cpu.branchPred.committed_0::DirectCond       330481     87.81%     94.59% # Number of branches finally committed  (Count)
system.cpu.branchPred.committed_0::DirectUncond        15006      3.99%     98.58% # Number of branches finally committed  (Count)
system.cpu.branchPred.committed_0::IndirectCond            0      0.00%     98.58% # Number of branches finally committed  (Count)
system.cpu.branchPred.committed_0::IndirectUncond         5358      1.42%    100.00% # Number of branches finally committed  (Count)
system.cpu.branchPred.committed_0::total       376375                       # Number of branches finally committed  (Count)
system.cpu.branchPred.mispredicted_0::NoBranch          233      1.60%      1.60% # Number of committed branches that were mispredicted. (Count)
system.cpu.branchPred.mispredicted_0::Return            0      0.00%      1.60% # Number of committed branches that were mispredicted. (Count)
system.cpu.branchPred.mispredicted_0::CallDirect          497      3.42%      5.03% # Number of committed branches that were mispredicted. (Count)
system.cpu.branchPred.mispredicted_0::CallIndirect          238      1.64%      6.67% # Number of committed branches that were mispredicted. (Count)
system.cpu.branchPred.mispredicted_0::DirectCond        11980     82.49%     89.16% # Number of committed branches that were mispredicted. (Count)
system.cpu.branchPred.mispredicted_0::DirectUncond          383      2.64%     91.79% # Number of committed branches that were mispredicted. (Count)
system.cpu.branchPred.mispredicted_0::IndirectCond            0      0.00%     91.79% # Number of committed branches that were mispredicted. (Count)
system.cpu.branchPred.mispredicted_0::IndirectUncond         1192      8.21%    100.00% # Number of committed branches that were mispredicted. (Count)
system.cpu.branchPred.mispredicted_0::total        14523                       # Number of committed branches that were mispredicted. (Count)
system.cpu.branchPred.targetProvider_0::NoTarget       233936     45.25%     45.25% # The component providing the target for taken branches (Count)
system.cpu.branchPred.targetProvider_0::BTB       261163     50.51%     95.76% # The component providing the target for taken branches (Count)
system.cpu.branchPred.targetProvider_0::RAS        16417      3.18%     98.94% # The component providing the target for taken branches (Count)
system.cpu.branchPred.targetProvider_0::Indirect         5498      1.06%    100.00% # The component providing the target for taken branches (Count)
system.cpu.branchPred.targetProvider_0::total       517014                       # The component providing the target for taken branches (Count)
system.cpu.branchPred.targetWrong_0::NoBranch         8546     57.10%     57.10% # Number of branches where the target was incorrect or not available at prediction time. (Count)
system.cpu.branchPred.targetWrong_0::Return         6275     41.93%     99.02% # Number of branches where the target was incorrect or not available at prediction time. (Count)
system.cpu.branchPred.targetWrong_0::CallDirect            6      0.04%     99.06% # Number of branches where the target was incorrect or not available at prediction time. (Count)
system.cpu.branchPred.targetWrong_0::CallIndirect          140      0.94%    100.00% # Number of branches where the target was incorrect or not available at prediction time. (Count)
system.cpu.branchPred.targetWrong_0::DirectCond            0      0.00%    100.00% # Number of branches where the target was incorrect or not available at prediction time. (Count)
system.cpu.branchPred.targetWrong_0::DirectUncond            0      0.00%    100.00% # Number of branches where the target was incorrect or not available at prediction time. (Count)
system.cpu.branchPred.targetWrong_0::IndirectCond            0      0.00%    100.00% # Number of branches where the target was incorrect or not available at prediction time. (Count)
system.cpu.branchPred.targetWrong_0::IndirectUncond            0      0.00%    100.00% # Number of branches where the target was incorrect or not available at prediction time. (Count)
system.cpu.branchPred.targetWrong_0::total        14967                       # Number of branches where the target was incorrect or not available at prediction time. (Count)
system.cpu.branchPred.condPredicted            441097                       # Number of conditional branches predicted (Count)
system.cpu.branchPred.condPredictedTaken       222442                       # Number of conditional branches predicted as taken (Count)
system.cpu.branchPred.condIncorrect             17163                       # Number of conditional branches incorrect (Count)
system.cpu.branchPred.predTakenBTBMiss           1862                       # Number of branches predicted taken but missed in BTB (Count)
system.cpu.branchPred.NotTakenMispredicted        10200                       # Number branches predicted 'not taken' but turned out to be taken (Count)
system.cpu.branchPred.TakenMispredicted          6963                       # Number branches predicted taken but are actually not taken (Count)
system.cpu.branchPred.BTBLookups               517014                       # Number of BTB lookups (Count)
system.cpu.branchPred.BTBUpdates                 8255                       # Number of BTB updates (Count)
system.cpu.branchPred.BTBHits                  350434                       # Number of BTB hits (Count)
system.cpu.branchPred.BTBHitRatio            0.677804                       # BTB Hit Ratio (Ratio)
system.cpu.branchPred.BTBMispredicted            2756                       # Number BTB mispredictions. No target found or target wrong (Count)
system.cpu.branchPred.indirectLookups           15293                       # Number of indirect predictor lookups. (Count)
system.cpu.branchPred.indirectHits               5498                       # Number of indirect target hits. (Count)
system.cpu.branchPred.indirectMisses             9795                       # Number of indirect misses. (Count)
system.cpu.branchPred.indirectMispredicted            0                       # Number of mispredicted indirect branches. (Count)
system.cpu.branchPred.btb.lookups::NoBranch         2764      0.53%      0.53% # Number of BTB lookups (Count)
system.cpu.branchPred.btb.lookups::Return        16419      3.18%      3.71% # Number of BTB lookups (Count)
system.cpu.branchPred.btb.lookups::CallDirect        21650      4.19%      7.90% # Number of BTB lookups (Count)
system.cpu.branchPred.btb.lookups::CallIndirect         1499      0.29%      8.19% # Number of BTB lookups (Count)
system.cpu.branchPred.btb.lookups::DirectCond       438333     84.78%     92.97% # Number of BTB lookups (Count)
system.cpu.branchPred.btb.lookups::DirectUncond        22555      4.36%     97.33% # Number of BTB lookups (Count)
system.cpu.branchPred.btb.lookups::IndirectCond            0      0.00%     97.33% # Number of BTB lookups (Count)
system.cpu.branchPred.btb.lookups::IndirectUncond        13794      2.67%    100.00% # Number of BTB lookups (Count)
system.cpu.branchPred.btb.lookups::total       517014                       # Number of BTB lookups (Count)
system.cpu.branchPred.btb.misses::NoBranch          497      0.30%      0.30% # Number of BTB misses (Count)
system.cpu.branchPred.btb.misses::Return        16419      9.86%     10.15% # Number of BTB misses (Count)
system.cpu.branchPred.btb.misses::CallDirect         1492      0.90%     11.05% # Number of BTB misses (Count)
system.cpu.branchPred.btb.misses::CallIndirect         1498      0.90%     11.95% # Number of BTB misses (Count)
system.cpu.branchPred.btb.misses::DirectCond       131751     79.09%     91.04% # Number of BTB misses (Count)
system.cpu.branchPred.btb.misses::DirectUncond         1129      0.68%     91.72% # Number of BTB misses (Count)
system.cpu.branchPred.btb.misses::IndirectCond            0      0.00%     91.72% # Number of BTB misses (Count)
system.cpu.branchPred.btb.misses::IndirectUncond        13794      8.28%    100.00% # Number of BTB misses (Count)
system.cpu.branchPred.btb.misses::total        166580                       # Number of BTB misses (Count)
system.cpu.branchPred.btb.updates::NoBranch            0      0.00%      0.00% # Number of BTB updates (Count)
system.cpu.branchPred.btb.updates::Return            0      0.00%      0.00% # Number of BTB updates (Count)
system.cpu.branchPred.btb.updates::CallDirect          828     10.03%     10.03% # Number of BTB updates (Count)
system.cpu.branchPred.btb.updates::CallIndirect            0      0.00%     10.03% # Number of BTB updates (Count)
system.cpu.branchPred.btb.updates::DirectCond         6752     81.79%     91.82% # Number of BTB updates (Count)
system.cpu.branchPred.btb.updates::DirectUncond          675      8.18%    100.00% # Number of BTB updates (Count)
system.cpu.branchPred.btb.updates::IndirectCond            0      0.00%    100.00% # Number of BTB updates (Count)
system.cpu.branchPred.btb.updates::IndirectUncond            0      0.00%    100.00% # Number of BTB updates (Count)
system.cpu.branchPred.btb.updates::total         8255                       # Number of BTB updates (Count)
system.cpu.branchPred.btb.mispredict::NoBranch            0      0.00%      0.00% # Number of BTB mispredictions. No target found or target wrong. (Count)
system.cpu.branchPred.btb.mispredict::Return            0      0.00%      0.00% # Number of BTB mispredictions. No target found or target wrong. (Count)
system.cpu.branchPred.btb.mispredict::CallDirect          828     10.03%     10.03% # Number of BTB mispredictions. No target found or target wrong. (Count)
system.cpu.branchPred.btb.mispredict::CallIndirect            0      0.00%     10.03% # Number of BTB mispredictions. No target found or target wrong. (Count)
system.cpu.branchPred.btb.mispredict::DirectCond         6752     81.79%     91.82% # Number of BTB mispredictions. No target found or target wrong. (Count)
system.cpu.branchPred.btb.mispredict::DirectUncond          675      8.18%    100.00% # Number of BTB mispredictions. No target found or target wrong. (Count)
system.cpu.branchPred.btb.mispredict::IndirectCond            0      0.00%    100.00% # Number of BTB mispredictions. No target found or target wrong. (Count)
system.cpu.branchPred.btb.mispredict::IndirectUncond            0      0.00%    100.00% # Number of BTB mispredictions. No target found or target wrong. (Count)
system.cpu.branchPred.btb.mispredict::total         8255                       # Number of BTB mispredictions. No target found or target wrong. (Count)
system.cpu.branchPred.btb.power_state.pwrStateResidencyTicks::UNDEFINED  17029907575                       # Cumulative time (in ticks) in various power states (Tick)
system.cpu.branchPred.indirectBranchPred.lookups        15293                       # Number of lookups (Count)
system.cpu.branchPred.indirectBranchPred.hits         5498                       # Number of hits of a tag (Count)
system.cpu.branchPred.indirectBranchPred.misses         9795                       # Number of misses (Count)
system.cpu.branchPred.indirectBranchPred.targetRecords         1537                       # Number of targets that where recorded/installed in the cache (Count)
system.cpu.branchPred.indirectBranchPred.indirectRecords        16830                       # Number of indirect branches/calls recorded in the indirect hist (Count)
system.cpu.branchPred.indirectBranchPred.speculativeOverflows            1                       # Number of times more than the allowed capacity for speculative branches/calls where in flight and destroy the path history (Count)
system.cpu.branchPred.ras.pushes                26921                       # Number of times a PC was pushed onto the RAS (Count)
system.cpu.branchPred.ras.pops                  26916                       # Number of times a PC was poped from the RAS (Count)
system.cpu.branchPred.ras.squashes              14269                       # Number of times the stack operation was squashed due to wrong speculation. (Count)
system.cpu.branchPred.ras.used                  12645                       # Number of times the RAS is the provider (Count)
system.cpu.branchPred.ras.correct               12645                       # Number of times the RAS is the provider and the prediction is correct (Count)
system.cpu.branchPred.ras.incorrect                 0                       # Number of times the RAS is the provider and the prediction is wrong (Count)
system.cpu.commit.commitSquashedInsts          854402                       # The number of squashed insts skipped by commit (Count)
system.cpu.commit.commitNonSpecStalls            2479                       # The number of times commit has been forced to stall to communicate backwards (Count)
system.cpu.commit.branchMispredicts             15693                       # The number of times a branch was mispredicted (Count)
system.cpu.commit.numCommittedDist::samples      1153882                       # Number of insts commited each cycle (Count)
system.cpu.commit.numCommittedDist::mean     3.500939                       # Number of insts commited each cycle (Count)
system.cpu.commit.numCommittedDist::stdev     3.216786                       # Number of insts commited each cycle (Count)
system.cpu.commit.numCommittedDist::underflows            0      0.00%      0.00% # Number of insts commited each cycle (Count)
system.cpu.commit.numCommittedDist::0          246856     21.39%     21.39% # Number of insts commited each cycle (Count)
system.cpu.commit.numCommittedDist::1          255137     22.11%     43.50% # Number of insts commited each cycle (Count)
system.cpu.commit.numCommittedDist::2           78224      6.78%     50.28% # Number of insts commited each cycle (Count)
system.cpu.commit.numCommittedDist::3          141107     12.23%     62.51% # Number of insts commited each cycle (Count)
system.cpu.commit.numCommittedDist::4           25654      2.22%     64.74% # Number of insts commited each cycle (Count)
system.cpu.commit.numCommittedDist::5           11417      0.99%     65.73% # Number of insts commited each cycle (Count)
system.cpu.commit.numCommittedDist::6           10050      0.87%     66.60% # Number of insts commited each cycle (Count)
system.cpu.commit.numCommittedDist::7           98732      8.56%     75.15% # Number of insts commited each cycle (Count)
system.cpu.commit.numCommittedDist::8          286705     24.85%    100.00% # Number of insts commited each cycle (Count)
system.cpu.commit.numCommittedDist::overflows            0      0.00%    100.00% # Number of insts commited each cycle (Count)
system.cpu.commit.numCommittedDist::min_value            0                       # Number of insts commited each cycle (Count)
system.cpu.commit.numCommittedDist::max_value            8                       # Number of insts commited each cycle (Count)
system.cpu.commit.numCommittedDist::total      1153882                       # Number of insts commited each cycle (Count)
system.cpu.commit.amos                              0                       # Number of atomic instructions committed (Count)
system.cpu.commit.membars                        1008                       # Number of memory barriers committed (Count)
system.cpu.commit.functionCalls                 12652                       # Number of function calls committed. (Count)
system.cpu.commit.committedInstType_0::No_OpClass        16059      0.40%      0.40% # Class of committed instruction (Count)
system.cpu.commit.committedInstType_0::IntAlu      3150068     77.98%     78.38% # Class of committed instruction (Count)
system.cpu.commit.committedInstType_0::IntMult           91      0.00%     78.38% # Class of committed instruction (Count)
system.cpu.commit.committedInstType_0::IntDiv        39362      0.97%     79.35% # Class of committed instruction (Count)
system.cpu.commit.committedInstType_0::FloatAdd         7302      0.18%     79.53% # Class of committed instruction (Count)
system.cpu.commit.committedInstType_0::FloatCmp            0      0.00%     79.53% # Class of committed instruction (Count)
system.cpu.commit.committedInstType_0::FloatCvt         1712      0.04%     79.58% # Class of committed instruction (Count)
system.cpu.commit.committedInstType_0::FloatMult            0      0.00%     79.58% # Class of committed instruction (Count)
system.cpu.commit.committedInstType_0::FloatMultAcc            0      0.00%     79.58% # Class of committed instruction (Count)
system.cpu.commit.committedInstType_0::FloatDiv            0      0.00%     79.58% # Class of committed instruction (Count)
system.cpu.commit.committedInstType_0::FloatMisc            0      0.00%     79.58% # Class of committed instruction (Count)
system.cpu.commit.committedInstType_0::FloatSqrt            0      0.00%     79.58% # Class of committed instruction (Count)
system.cpu.commit.committedInstType_0::SimdAdd         6810      0.17%     79.74% # Class of committed instruction (Count)
system.cpu.commit.committedInstType_0::SimdAddAcc            0      0.00%     79.74% # Class of committed instruction (Count)
system.cpu.commit.committedInstType_0::SimdAlu        13095      0.32%     80.07% # Class of committed instruction (Count)
system.cpu.commit.committedInstType_0::SimdCmp            6      0.00%     80.07% # Class of committed instruction (Count)
system.cpu.commit.committedInstType_0::SimdCvt        13632      0.34%     80.41% # Class of committed instruction (Count)
system.cpu.commit.committedInstType_0::SimdMisc        14046      0.35%     80.75% # Class of committed instruction (Count)
system.cpu.commit.committedInstType_0::SimdMult            0      0.00%     80.75% # Class of committed instruction (Count)
system.cpu.commit.committedInstType_0::SimdMultAcc            0      0.00%     80.75% # Class of committed instruction (Count)
system.cpu.commit.committedInstType_0::SimdMatMultAcc            0      0.00%     80.75% # Class of committed instruction (Count)
system.cpu.commit.committedInstType_0::SimdShift         1562      0.04%     80.79% # Class of committed instruction (Count)
system.cpu.commit.committedInstType_0::SimdShiftAcc            0      0.00%     80.79% # Class of committed instruction (Count)
system.cpu.commit.committedInstType_0::SimdDiv            0      0.00%     80.79% # Class of committed instruction (Count)
system.cpu.commit.committedInstType_0::SimdSqrt            0      0.00%     80.79% # Class of committed instruction (Count)
system.cpu.commit.committedInstType_0::SimdFloatAdd            1      0.00%     80.79% # Class of committed instruction (Count)
system.cpu.commit.committedInstType_0::SimdFloatAlu            0      0.00%     80.79% # Class of committed instruction (Count)
system.cpu.commit.committedInstType_0::SimdFloatCmp            0      0.00%     80.79% # Class of committed instruction (Count)
system.cpu.commit.committedInstType_0::SimdFloatCvt            2      0.00%     80.79% # Class of committed instruction (Count)
system.cpu.commit.committedInstType_0::SimdFloatDiv            1      0.00%     80.79% # Class of committed instruction (Count)
system.cpu.commit.committedInstType_0::SimdFloatMisc            0      0.00%     80.79% # Class of committed instruction (Count)
system.cpu.commit.committedInstType_0::SimdFloatMult            0      0.00%     80.79% # Class of committed instruction (Count)
system.cpu.commit.committedInstType_0::SimdFloatMultAcc            0      0.00%     80.79% # Class of committed instruction (Count)
system.cpu.commit.committedInstType_0::SimdFloatMatMultAcc            0      0.00%     80.79% # Class of committed instruction (Count)
system.cpu.commit.committedInstType_0::SimdFloatSqrt            0      0.00%     80.79% # Class of committed instruction (Count)
system.cpu.commit.committedInstType_0::SimdReduceAdd            0      0.00%     80.79% # Class of committed instruction (Count)
system.cpu.commit.committedInstType_0::SimdReduceAlu            0      0.00%     80.79% # Class of committed instruction (Count)
system.cpu.commit.committedInstType_0::SimdReduceCmp            0      0.00%     80.79% # Class of committed instruction (Count)
system.cpu.commit.committedInstType_0::SimdFloatReduceAdd            0      0.00%     80.79% # Class of committed instruction (Count)
system.cpu.commit.committedInstType_0::SimdFloatReduceCmp            0      0.00%     80.79% # Class of committed instruction (Count)
system.cpu.commit.committedInstType_0::SimdAes            0      0.00%     80.79% # Class of committed instruction (Count)
system.cpu.commit.committedInstType_0::SimdAesMix            0      0.00%     80.79% # Class of committed instruction (Count)
system.cpu.commit.committedInstType_0::SimdSha1Hash            0      0.00%     80.79% # Class of committed instruction (Count)
system.cpu.commit.committedInstType_0::SimdSha1Hash2            0      0.00%     80.79% # Class of committed instruction (Count)
system.cpu.commit.committedInstType_0::SimdSha256Hash            0      0.00%     80.79% # Class of committed instruction (Count)
system.cpu.commit.committedInstType_0::SimdSha256Hash2            0      0.00%     80.79% # Class of committed instruction (Count)
system.cpu.commit.committedInstType_0::SimdShaSigma2            0      0.00%     80.79% # Class of committed instruction (Count)
system.cpu.commit.committedInstType_0::SimdShaSigma3            0      0.00%     80.79% # Class of committed instruction (Count)
system.cpu.commit.committedInstType_0::SimdPredAlu            0      0.00%     80.79% # Class of committed instruction (Count)
system.cpu.commit.committedInstType_0::Matrix            0      0.00%     80.79% # Class of committed instruction (Count)
system.cpu.commit.committedInstType_0::MatrixMov            0      0.00%     80.79% # Class of committed instruction (Count)
system.cpu.commit.committedInstType_0::MatrixOP            0      0.00%     80.79% # Class of committed instruction (Count)
system.cpu.commit.committedInstType_0::MemRead       535290     13.25%     94.04% # Class of committed instruction (Count)
system.cpu.commit.committedInstType_0::MemWrite       206612      5.11%     99.16% # Class of committed instruction (Count)
system.cpu.commit.committedInstType_0::FloatMemRead        18274      0.45%     99.61% # Class of committed instruction (Count)
system.cpu.commit.committedInstType_0::FloatMemWrite        15746      0.39%    100.00% # Class of committed instruction (Count)
system.cpu.commit.committedInstType_0::IprAccess            0      0.00%    100.00% # Class of committed instruction (Count)
system.cpu.commit.committedInstType_0::InstPrefetch            0      0.00%    100.00% # Class of committed instruction (Count)
system.cpu.commit.committedInstType_0::SimdUnitStrideLoad            0      0.00%    100.00% # Class of committed instruction (Count)
system.cpu.commit.committedInstType_0::SimdUnitStrideStore            0      0.00%    100.00% # Class of committed instruction (Count)
system.cpu.commit.committedInstType_0::SimdUnitStrideMaskLoad            0      0.00%    100.00% # Class of committed instruction (Count)
system.cpu.commit.committedInstType_0::SimdUnitStrideMaskStore            0      0.00%    100.00% # Class of committed instruction (Count)
system.cpu.commit.committedInstType_0::SimdStridedLoad            0      0.00%    100.00% # Class of committed instruction (Count)
system.cpu.commit.committedInstType_0::SimdStridedStore            0      0.00%    100.00% # Class of committed instruction (Count)
system.cpu.commit.committedInstType_0::SimdIndexedLoad            0      0.00%    100.00% # Class of committed instruction (Count)
system.cpu.commit.committedInstType_0::SimdIndexedStore            0      0.00%    100.00% # Class of committed instruction (Count)
system.cpu.commit.committedInstType_0::SimdWholeRegisterLoad            0      0.00%    100.00% # Class of committed instruction (Count)
system.cpu.commit.committedInstType_0::SimdWholeRegisterStore            0      0.00%    100.00% # Class of committed instruction (Count)
system.cpu.commit.committedInstType_0::SimdUnitStrideFaultOnlyFirstLoad            0      0.00%    100.00% # Class of committed instruction (Count)
system.cpu.commit.committedInstType_0::SimdUnitStrideSegmentedLoad            0      0.00%    100.00% # Class of committed instruction (Count)
system.cpu.commit.committedInstType_0::SimdUnitStrideSegmentedStore            0      0.00%    100.00% # Class of committed instruction (Count)
system.cpu.commit.committedInstType_0::SimdExt            0      0.00%    100.00% # Class of committed instruction (Count)
system.cpu.commit.committedInstType_0::SimdFloatExt            0      0.00%    100.00% # Class of committed instruction (Count)
system.cpu.commit.committedInstType_0::SimdConfig            0      0.00%    100.00% # Class of committed instruction (Count)
system.cpu.commit.committedInstType_0::total      4039671                       # Class of committed instruction (Count)
system.cpu.commit.commitEligibleSamples        286705                       # number cycles where commit BW limit reached (Cycle)
system.cpu.commitStats0.numInsts              2317878                       # Number of instructions committed (thread level) (Count)
system.cpu.commitStats0.numOps                4039671                       # Number of ops (including micro ops) committed (thread level) (Count)
system.cpu.commitStats0.numInstsNotNOP        2317878                       # Number of instructions committed excluding NOPs or prefetches (Count)
system.cpu.commitStats0.numOpsNotNOP          4039671                       # Number of Ops (including micro ops) Simulated (Count)
system.cpu.commitStats0.cpi                  0.551054                       # CPI: cycles per instruction (thread level) ((Cycle/Count))
system.cpu.commitStats0.ipc                  1.814704                       # IPC: instructions per cycle (thread level) ((Count/Cycle))
system.cpu.commitStats0.numMemRefs             775922                       # Number of memory references committed (Count)
system.cpu.commitStats0.numFpInsts              96469                       # Number of float instructions (Count)
system.cpu.commitStats0.numIntInsts           3963412                       # Number of integer instructions (Count)
system.cpu.commitStats0.numLoadInsts           553564                       # Number of load instructions (Count)
system.cpu.commitStats0.numStoreInsts          222358                       # Number of store instructions (Count)
system.cpu.commitStats0.numVecInsts                 0                       # Number of vector instructions (Count)
system.cpu.commitStats0.committedInstType::No_OpClass        16059      0.40%      0.40% # Class of committed instruction. (Count)
system.cpu.commitStats0.committedInstType::IntAlu      3150068     77.98%     78.38% # Class of committed instruction. (Count)
system.cpu.commitStats0.committedInstType::IntMult           91      0.00%     78.38% # Class of committed instruction. (Count)
system.cpu.commitStats0.committedInstType::IntDiv        39362      0.97%     79.35% # Class of committed instruction. (Count)
system.cpu.commitStats0.committedInstType::FloatAdd         7302      0.18%     79.53% # Class of committed instruction. (Count)
system.cpu.commitStats0.committedInstType::FloatCmp            0      0.00%     79.53% # Class of committed instruction. (Count)
system.cpu.commitStats0.committedInstType::FloatCvt         1712      0.04%     79.58% # Class of committed instruction. (Count)
system.cpu.commitStats0.committedInstType::FloatMult            0      0.00%     79.58% # Class of committed instruction. (Count)
system.cpu.commitStats0.committedInstType::FloatMultAcc            0      0.00%     79.58% # Class of committed instruction. (Count)
system.cpu.commitStats0.committedInstType::FloatDiv            0      0.00%     79.58% # Class of committed instruction. (Count)
system.cpu.commitStats0.committedInstType::FloatMisc            0      0.00%     79.58% # Class of committed instruction. (Count)
system.cpu.commitStats0.committedInstType::FloatSqrt            0      0.00%     79.58% # Class of committed instruction. (Count)
system.cpu.commitStats0.committedInstType::SimdAdd         6810      0.17%     79.74% # Class of committed instruction. (Count)
system.cpu.commitStats0.committedInstType::SimdAddAcc            0      0.00%     79.74% # Class of committed instruction. (Count)
system.cpu.commitStats0.committedInstType::SimdAlu        13095      0.32%     80.07% # Class of committed instruction. (Count)
system.cpu.commitStats0.committedInstType::SimdCmp            6      0.00%     80.07% # Class of committed instruction. (Count)
system.cpu.commitStats0.committedInstType::SimdCvt        13632      0.34%     80.41% # Class of committed instruction. (Count)
system.cpu.commitStats0.committedInstType::SimdMisc        14046      0.35%     80.75% # Class of committed instruction. (Count)
system.cpu.commitStats0.committedInstType::SimdMult            0      0.00%     80.75% # Class of committed instruction. (Count)
system.cpu.commitStats0.committedInstType::SimdMultAcc            0      0.00%     80.75% # Class of committed instruction. (Count)
system.cpu.commitStats0.committedInstType::SimdMatMultAcc            0      0.00%     80.75% # Class of committed instruction. (Count)
system.cpu.commitStats0.committedInstType::SimdShift         1562      0.04%     80.79% # Class of committed instruction. (Count)
system.cpu.commitStats0.committedInstType::SimdShiftAcc            0      0.00%     80.79% # Class of committed instruction. (Count)
system.cpu.commitStats0.committedInstType::SimdDiv            0      0.00%     80.79% # Class of committed instruction. (Count)
system.cpu.commitStats0.committedInstType::SimdSqrt            0      0.00%     80.79% # Class of committed instruction. (Count)
system.cpu.commitStats0.committedInstType::SimdFloatAdd            1      0.00%     80.79% # Class of committed instruction. (Count)
system.cpu.commitStats0.committedInstType::SimdFloatAlu            0      0.00%     80.79% # Class of committed instruction. (Count)
system.cpu.commitStats0.committedInstType::SimdFloatCmp            0      0.00%     80.79% # Class of committed instruction. (Count)
system.cpu.commitStats0.committedInstType::SimdFloatCvt            2      0.00%     80.79% # Class of committed instruction. (Count)
system.cpu.commitStats0.committedInstType::SimdFloatDiv            1      0.00%     80.79% # Class of committed instruction. (Count)
system.cpu.commitStats0.committedInstType::SimdFloatMisc            0      0.00%     80.79% # Class of committed instruction. (Count)
system.cpu.commitStats0.committedInstType::SimdFloatMult            0      0.00%     80.79% # Class of committed instruction. (Count)
system.cpu.commitStats0.committedInstType::SimdFloatMultAcc            0      0.00%     80.79% # Class of committed instruction. (Count)
system.cpu.commitStats0.committedInstType::SimdFloatMatMultAcc            0      0.00%     80.79% # Class of committed instruction. (Count)
system.cpu.commitStats0.committedInstType::SimdFloatSqrt            0      0.00%     80.79% # Class of committed instruction. (Count)
system.cpu.commitStats0.committedInstType::SimdReduceAdd            0      0.00%     80.79% # Class of committed instruction. (Count)
system.cpu.commitStats0.committedInstType::SimdReduceAlu            0      0.00%     80.79% # Class of committed instruction. (Count)
system.cpu.commitStats0.committedInstType::SimdReduceCmp            0      0.00%     80.79% # Class of committed instruction. (Count)
system.cpu.commitStats0.committedInstType::SimdFloatReduceAdd            0      0.00%     80.79% # Class of committed instruction. (Count)
system.cpu.commitStats0.committedInstType::SimdFloatReduceCmp            0      0.00%     80.79% # Class of committed instruction. (Count)
system.cpu.commitStats0.committedInstType::SimdAes            0      0.00%     80.79% # Class of committed instruction. (Count)
system.cpu.commitStats0.committedInstType::SimdAesMix            0      0.00%     80.79% # Class of committed instruction. (Count)
system.cpu.commitStats0.committedInstType::SimdSha1Hash            0      0.00%     80.79% # Class of committed instruction. (Count)
system.cpu.commitStats0.committedInstType::SimdSha1Hash2            0      0.00%     80.79% # Class of committed instruction. (Count)
system.cpu.commitStats0.committedInstType::SimdSha256Hash            0      0.00%     80.79% # Class of committed instruction. (Count)
system.cpu.commitStats0.committedInstType::SimdSha256Hash2            0      0.00%     80.79% # Class of committed instruction. (Count)
system.cpu.commitStats0.committedInstType::SimdShaSigma2            0      0.00%     80.79% # Class of committed instruction. (Count)
system.cpu.commitStats0.committedInstType::SimdShaSigma3            0      0.00%     80.79% # Class of committed instruction. (Count)
system.cpu.commitStats0.committedInstType::SimdPredAlu            0      0.00%     80.79% # Class of committed instruction. (Count)
system.cpu.commitStats0.committedInstType::Matrix            0      0.00%     80.79% # Class of committed instruction. (Count)
system.cpu.commitStats0.committedInstType::MatrixMov            0      0.00%     80.79% # Class of committed instruction. (Count)
system.cpu.commitStats0.committedInstType::MatrixOP            0      0.00%     80.79% # Class of committed instruction. (Count)
system.cpu.commitStats0.committedInstType::MemRead       535290     13.25%     94.04% # Class of committed instruction. (Count)
system.cpu.commitStats0.committedInstType::MemWrite       206612      5.11%     99.16% # Class of committed instruction. (Count)
system.cpu.commitStats0.committedInstType::FloatMemRead        18274      0.45%     99.61% # Class of committed instruction. (Count)
system.cpu.commitStats0.committedInstType::FloatMemWrite        15746      0.39%    100.00% # Class of committed instruction. (Count)
system.cpu.commitStats0.committedInstType::IprAccess            0      0.00%    100.00% # Class of committed instruction. (Count)
system.cpu.commitStats0.committedInstType::InstPrefetch            0      0.00%    100.00% # Class of committed instruction. (Count)
system.cpu.commitStats0.committedInstType::SimdUnitStrideLoad            0      0.00%    100.00% # Class of committed instruction. (Count)
system.cpu.commitStats0.committedInstType::SimdUnitStrideStore            0      0.00%    100.00% # Class of committed instruction. (Count)
system.cpu.commitStats0.committedInstType::SimdUnitStrideMaskLoad            0      0.00%    100.00% # Class of committed instruction. (Count)
system.cpu.commitStats0.committedInstType::SimdUnitStrideMaskStore            0      0.00%    100.00% # Class of committed instruction. (Count)
system.cpu.commitStats0.committedInstType::SimdStridedLoad            0      0.00%    100.00% # Class of committed instruction. (Count)
system.cpu.commitStats0.committedInstType::SimdStridedStore            0      0.00%    100.00% # Class of committed instruction. (Count)
system.cpu.commitStats0.committedInstType::SimdIndexedLoad            0      0.00%    100.00% # Class of committed instruction. (Count)
system.cpu.commitStats0.committedInstType::SimdIndexedStore            0      0.00%    100.00% # Class of committed instruction. (Count)
system.cpu.commitStats0.committedInstType::SimdWholeRegisterLoad            0      0.00%    100.00% # Class of committed instruction. (Count)
system.cpu.commitStats0.committedInstType::SimdWholeRegisterStore            0      0.00%    100.00% # Class of committed instruction. (Count)
system.cpu.commitStats0.committedInstType::SimdUnitStrideFaultOnlyFirstLoad            0      0.00%    100.00% # Class of committed instruction. (Count)
system.cpu.commitStats0.committedInstType::SimdUnitStrideSegmentedLoad            0      0.00%    100.00% # Class of committed instruction. (Count)
system.cpu.commitStats0.committedInstType::SimdUnitStrideSegmentedStore            0      0.00%    100.00% # Class of committed instruction. (Count)
system.cpu.commitStats0.committedInstType::SimdExt            0      0.00%    100.00% # Class of committed instruction. (Count)
system.cpu.commitStats0.committedInstType::SimdFloatExt            0      0.00%    100.00% # Class of committed instruction. (Count)
system.cpu.commitStats0.committedInstType::SimdConfig            0      0.00%    100.00% # Class of committed instruction. (Count)
system.cpu.commitStats0.committedInstType::total      4039671                       # Class of committed instruction. (Count)
system.cpu.commitStats0.committedControl::IsControl       376375                       # Class of control type instructions committed (Count)
system.cpu.commitStats0.committedControl::IsDirectControl       357506                       # Class of control type instructions committed (Count)
system.cpu.commitStats0.committedControl::IsIndirectControl        18636                       # Class of control type instructions committed (Count)
system.cpu.commitStats0.committedControl::IsCondControl       330481                       # Class of control type instructions committed (Count)
system.cpu.commitStats0.committedControl::IsUncondControl        45661                       # Class of control type instructions committed (Count)
system.cpu.commitStats0.committedControl::IsCall        12652                       # Class of control type instructions committed (Count)
system.cpu.commitStats0.committedControl::IsReturn        12645                       # Class of control type instructions committed (Count)
system.cpu.decode.idleCycles                   148390                       # Number of cycles decode is idle (Cycle)
system.cpu.decode.blockedCycles                414304                       # Number of cycles decode is blocked (Cycle)
system.cpu.decode.runCycles                    498277                       # Number of cycles decode is running (Cycle)
system.cpu.decode.unblockCycles                198621                       # Number of cycles decode is unblocking (Cycle)
system.cpu.decode.squashCycles                  16478                       # Number of cycles decode is squashing (Cycle)
system.cpu.decode.branchResolved               245579                       # Number of times decode resolved a branch (Count)
system.cpu.decode.branchMispred                  1775                       # Number of times decode detected a branch misprediction (Count)
system.cpu.decode.decodedInsts                5161841                       # Number of instructions handled by decode (Count)
system.cpu.decode.squashedInsts                  9173                       # Number of squashed instructions handled by decode (Count)
system.cpu.executeStats0.numInsts             4583054                       # Number of executed instructions (Count)
system.cpu.executeStats0.numNop                     0                       # Number of nop insts executed (Count)
system.cpu.executeStats0.numBranches           411482                       # Number of branches executed (Count)
system.cpu.executeStats0.numLoadInsts          629817                       # Number of load instructions executed (Count)
system.cpu.executeStats0.numStoreInsts         266557                       # Number of stores executed (Count)
system.cpu.executeStats0.instRate            3.588147                       # Inst execution rate ((Count/Cycle))
system.cpu.executeStats0.numCCRegReads        2214346                       # Number of times the CC registers were read (Count)
system.cpu.executeStats0.numCCRegWrites       2064956                       # Number of times the CC registers were written (Count)
system.cpu.executeStats0.numFpRegReads         156778                       # Number of times the floating registers were read (Count)
system.cpu.executeStats0.numFpRegWrites         89094                       # Number of times the floating registers were written (Count)
system.cpu.executeStats0.numIntRegReads       5699122                       # Number of times the integer registers were read (Count)
system.cpu.executeStats0.numIntRegWrites      3534620                       # Number of times the integer registers were written (Count)
system.cpu.executeStats0.numMemRefs            896374                       # Number of memory refs (Count)
system.cpu.executeStats0.numMiscRegReads      1734922                       # Number of times the Misc registers were read (Count)
system.cpu.executeStats0.numMiscRegWrites          963                       # Number of times the Misc registers were written (Count)
system.cpu.executeStats0.numVecAluAccesses            0                       # Number of vector alu accesses (Count)
system.cpu.executeStats0.numDiscardedOps            0                       # Number of ops (including micro ops) which were discarded before commit (Count)
system.cpu.fetch.predictedBranches             283078                       # Number of branches that fetch has predicted taken (Count)
system.cpu.fetch.cycles                       1208973                       # Number of cycles fetch has run and was not squashing or blocked (Cycle)
system.cpu.fetch.squashCycles                   36318                       # Number of cycles fetch has spent squashing (Cycle)
system.cpu.fetch.miscStallCycles                  262                       # Number of cycles fetch has spent waiting on interrupts, or bad addresses, or out of MSHRs (Cycle)
system.cpu.fetch.pendingTrapStallCycles          2361                       # Number of stall cycles due to pending traps (Cycle)
system.cpu.fetch.cacheLines                    259099                       # Number of cache lines fetched (Count)
[...]
system.mem_ctrl.dram.bwRead::total           80592334                       # Total read bandwidth from this memory ((Byte/Second))
system.mem_ctrl.dram.bwInstRead::cpu.inst     12251388                       # Instruction read bandwidth from this memory ((Byte/Second))
system.mem_ctrl.dram.bwInstRead::total       12251388                       # Instruction read bandwidth from this memory ((Byte/Second))
system.mem_ctrl.dram.bwWrite::writebacks     12762489                       # Write bandwidth from this memory ((Byte/Second))
system.mem_ctrl.dram.bwWrite::total          12762489                       # Write bandwidth from this memory ((Byte/Second))
system.mem_ctrl.dram.bwTotal::writebacks     12762489                       # Total bandwidth to/from this memory ((Byte/Second))
system.mem_ctrl.dram.bwTotal::cpu.inst       12251388                       # Total bandwidth to/from this memory ((Byte/Second))
system.mem_ctrl.dram.bwTotal::cpu.data       68340946                       # Total bandwidth to/from this memory ((Byte/Second))
system.mem_ctrl.dram.bwTotal::total          93354823                       # Total bandwidth to/from this memory ((Byte/Second))
system.mem_ctrl.dram.readBursts                 21309                       # Number of DRAM read bursts (Count)
system.mem_ctrl.dram.writeBursts                 3354                       # Number of DRAM write bursts (Count)
system.mem_ctrl.dram.perBankRdBursts::0          1223                       # Per bank write bursts (Count)
system.mem_ctrl.dram.perBankRdBursts::1          1706                       # Per bank write bursts (Count)
system.mem_ctrl.dram.perBankRdBursts::2           953                       # Per bank write bursts (Count)
system.mem_ctrl.dram.perBankRdBursts::3          1376                       # Per bank write bursts (Count)
system.mem_ctrl.dram.perBankRdBursts::4          1041                       # Per bank write bursts (Count)
system.mem_ctrl.dram.perBankRdBursts::5          1820                       # Per bank write bursts (Count)
system.mem_ctrl.dram.perBankRdBursts::6          1361                       # Per bank write bursts (Count)
system.mem_ctrl.dram.perBankRdBursts::7          1576                       # Per bank write bursts (Count)
system.mem_ctrl.dram.perBankRdBursts::8          1361                       # Per bank write bursts (Count)
system.mem_ctrl.dram.perBankRdBursts::9          2084                       # Per bank write bursts (Count)
system.mem_ctrl.dram.perBankRdBursts::10         1110                       # Per bank write bursts (Count)
system.mem_ctrl.dram.perBankRdBursts::11          910                       # Per bank write bursts (Count)
system.mem_ctrl.dram.perBankRdBursts::12         1399                       # Per bank write bursts (Count)
system.mem_ctrl.dram.perBankRdBursts::13         1391                       # Per bank write bursts (Count)
system.mem_ctrl.dram.perBankRdBursts::14          965                       # Per bank write bursts (Count)
system.mem_ctrl.dram.perBankRdBursts::15         1033                       # Per bank write bursts (Count)
system.mem_ctrl.dram.perBankWrBursts::0           105                       # Per bank write bursts (Count)
system.mem_ctrl.dram.perBankWrBursts::1           167                       # Per bank write bursts (Count)
system.mem_ctrl.dram.perBankWrBursts::2           181                       # Per bank write bursts (Count)
system.mem_ctrl.dram.perBankWrBursts::3           135                       # Per bank write bursts (Count)
system.mem_ctrl.dram.perBankWrBursts::4           128                       # Per bank write bursts (Count)
system.mem_ctrl.dram.perBankWrBursts::5           379                       # Per bank write bursts (Count)
system.mem_ctrl.dram.perBankWrBursts::6           485                       # Per bank write bursts (Count)
system.mem_ctrl.dram.perBankWrBursts::7           294                       # Per bank write bursts (Count)
system.mem_ctrl.dram.perBankWrBursts::8           195                       # Per bank write bursts (Count)
system.mem_ctrl.dram.perBankWrBursts::9           310                       # Per bank write bursts (Count)
system.mem_ctrl.dram.perBankWrBursts::10          191                       # Per bank write bursts (Count)
system.mem_ctrl.dram.perBankWrBursts::11          156                       # Per bank write bursts (Count)
system.mem_ctrl.dram.perBankWrBursts::12          161                       # Per bank write bursts (Count)
system.mem_ctrl.dram.perBankWrBursts::13          199                       # Per bank write bursts (Count)
system.mem_ctrl.dram.perBankWrBursts::14          160                       # Per bank write bursts (Count)
system.mem_ctrl.dram.perBankWrBursts::15          108                       # Per bank write bursts (Count)
system.mem_ctrl.dram.totQLat                310235375                       # Total ticks spent queuing (Tick)
system.mem_ctrl.dram.totBusLat              106545000                       # Total ticks spent in databus transfers (Tick)
system.mem_ctrl.dram.totMemAccLat           709779125                       # Total ticks spent from burst creation until serviced by the DRAM (Tick)
system.mem_ctrl.dram.avgQLat                 14558.89                       # Average queueing delay per DRAM burst ((Tick/Count))
system.mem_ctrl.dram.avgBusLat                5000.00                       # Average bus latency per DRAM burst ((Tick/Count))
system.mem_ctrl.dram.avgMemAccLat            33308.89                       # Average memory access latency per DRAM burst ((Tick/Count))
system.mem_ctrl.dram.readRowHits                 8513                       # Number of row buffer hits during reads (Count)
system.mem_ctrl.dram.writeRowHits                2688                       # Number of row buffer hits during writes (Count)
system.mem_ctrl.dram.readRowHitRate             39.95                       # Row buffer hit rate for reads (Ratio)
system.mem_ctrl.dram.writeRowHitRate            80.14                       # Row buffer hit rate for writes (Ratio)
system.mem_ctrl.dram.bytesPerActivate::samples        13460                       # Bytes accessed per row activation (Byte)
system.mem_ctrl.dram.bytesPerActivate::mean   117.254086                       # Bytes accessed per row activation (Byte)
system.mem_ctrl.dram.bytesPerActivate::gmean    88.518591                       # Bytes accessed per row activation (Byte)
system.mem_ctrl.dram.bytesPerActivate::stdev   145.357124                       # Bytes accessed per row activation (Byte)
system.mem_ctrl.dram.bytesPerActivate::0-127         9507     70.63%     70.63% # Bytes accessed per row activation (Byte)
system.mem_ctrl.dram.bytesPerActivate::128-255         2865     21.29%     91.92% # Bytes accessed per row activation (Byte)
system.mem_ctrl.dram.bytesPerActivate::256-383          414      3.08%     94.99% # Bytes accessed per row activation (Byte)
system.mem_ctrl.dram.bytesPerActivate::384-511          201      1.49%     96.49% # Bytes accessed per row activation (Byte)
system.mem_ctrl.dram.bytesPerActivate::512-639          145      1.08%     97.56% # Bytes accessed per row activation (Byte)
system.mem_ctrl.dram.bytesPerActivate::640-767           79      0.59%     98.15% # Bytes accessed per row activation (Byte)
system.mem_ctrl.dram.bytesPerActivate::768-895           65      0.48%     98.63% # Bytes accessed per row activation (Byte)
system.mem_ctrl.dram.bytesPerActivate::896-1023           42      0.31%     98.95% # Bytes accessed per row activation (Byte)
system.mem_ctrl.dram.bytesPerActivate::1024-1151          142      1.05%    100.00% # Bytes accessed per row activation (Byte)
system.mem_ctrl.dram.bytesPerActivate::total        13460                       # Bytes accessed per row activation (Byte)
system.mem_ctrl.dram.dramBytesRead            1363776                       # Total bytes read (Byte)
system.mem_ctrl.dram.dramBytesWritten          214656                       # Total bytes written (Byte)
system.mem_ctrl.dram.avgRdBW                80.081233                       # Average DRAM read bandwidth in MiBytes/s ((Byte/Second))
system.mem_ctrl.dram.avgWrBW                12.604649                       # Average DRAM write bandwidth in MiBytes/s ((Byte/Second))
system.mem_ctrl.dram.peakBW                  12800.00                       # Theoretical peak bandwidth in MiByte/s ((Byte/Second))
system.mem_ctrl.dram.busUtil                     0.72                       # Data bus utilization in percentage (Ratio)
system.mem_ctrl.dram.busUtilRead                 0.63                       # Data bus utilization in percentage for reads (Ratio)
system.mem_ctrl.dram.busUtilWrite                0.10                       # Data bus utilization in percentage for writes (Ratio)
system.mem_ctrl.dram.pageHitRate                45.42                       # Row buffer hit rate, read and write combined (Ratio)
system.mem_ctrl.dram.power_state.pwrStateResidencyTicks::UNDEFINED  17029907575                       # Cumulative time (in ticks) in various power states (Tick)
system.mem_ctrl.dram.rank0.actEnergy         48352080                       # Energy for activate commands per rank (pJ) (Joule)
system.mem_ctrl.dram.rank0.preEnergy         25692150                       # Energy for precharge commands per rank (pJ) (Joule)
system.mem_ctrl.dram.rank0.readEnergy        78939840                       # Energy for read commands per rank (pJ) (Joule)
system.mem_ctrl.dram.rank0.writeEnergy        9782280                       # Energy for write commands per rank (pJ) (Joule)
system.mem_ctrl.dram.rank0.refreshEnergy 1344217680.000000                       # Energy for refresh commands per rank (pJ) (Joule)
system.mem_ctrl.dram.rank0.actBackEnergy   5560857870                       # Energy for active background per rank (pJ) (Joule)
system.mem_ctrl.dram.rank0.preBackEnergy   1856657280                       # Energy for precharge background per rank (pJ) (Joule)
system.mem_ctrl.dram.rank0.actPowerDownEnergy            0                       # Energy for active power-down per rank (pJ) (Joule)
system.mem_ctrl.dram.rank0.prePowerDownEnergy            0                       # Energy for precharge power-down per rank (pJ) (Joule)
system.mem_ctrl.dram.rank0.selfRefreshEnergy            0                       # Energy for self refresh per rank (pJ) (Joule)
system.mem_ctrl.dram.rank0.totalEnergy     8924499180                       # Total energy per rank (pJ) (Joule)
system.mem_ctrl.dram.rank0.averagePower    524.048597                       # Core power per rank (mW) (Watt)
system.mem_ctrl.dram.rank0.totalIdleTime            0                       # Total Idle time Per DRAM Rank (Tick)
system.mem_ctrl.dram.rank0.pwrStateTime::IDLE   4772833455                       # Time in different power states (Tick)
system.mem_ctrl.dram.rank0.pwrStateTime::REF    568620000                       # Time in different power states (Tick)
system.mem_ctrl.dram.rank0.pwrStateTime::SREF            0                       # Time in different power states (Tick)
system.mem_ctrl.dram.rank0.pwrStateTime::PRE_PDN            0                       # Time in different power states (Tick)
system.mem_ctrl.dram.rank0.pwrStateTime::ACT  11688454120                       # Time in different power states (Tick)
system.mem_ctrl.dram.rank0.pwrStateTime::ACT_PDN            0                       # Time in different power states (Tick)
system.mem_ctrl.dram.rank1.actEnergy         47766600                       # Energy for activate commands per rank (pJ) (Joule)
system.mem_ctrl.dram.rank1.preEnergy         25388550                       # Energy for precharge commands per rank (pJ) (Joule)
system.mem_ctrl.dram.rank1.readEnergy        73206420                       # Energy for read commands per rank (pJ) (Joule)
system.mem_ctrl.dram.rank1.writeEnergy        7725600                       # Energy for write commands per rank (pJ) (Joule)
system.mem_ctrl.dram.rank1.refreshEnergy 1344217680.000000                       # Energy for refresh commands per rank (pJ) (Joule)
system.mem_ctrl.dram.rank1.actBackEnergy   5536693290                       # Energy for active background per rank (pJ) (Joule)
system.mem_ctrl.dram.rank1.preBackEnergy   1877006400                       # Energy for precharge background per rank (pJ) (Joule)
system.mem_ctrl.dram.rank1.actPowerDownEnergy            0                       # Energy for active power-down per rank (pJ) (Joule)
system.mem_ctrl.dram.rank1.prePowerDownEnergy            0                       # Energy for precharge power-down per rank (pJ) (Joule)
system.mem_ctrl.dram.rank1.selfRefreshEnergy            0                       # Energy for self refresh per rank (pJ) (Joule)
system.mem_ctrl.dram.rank1.totalEnergy     8912004540                       # Total energy per rank (pJ) (Joule)
system.mem_ctrl.dram.rank1.averagePower    523.314909                       # Core power per rank (mW) (Watt)
system.mem_ctrl.dram.rank1.totalIdleTime            0                       # Total Idle time Per DRAM Rank (Tick)
system.mem_ctrl.dram.rank1.pwrStateTime::IDLE   4825682622                       # Time in different power states (Tick)
system.mem_ctrl.dram.rank1.pwrStateTime::REF    568620000                       # Time in different power states (Tick)
system.mem_ctrl.dram.rank1.pwrStateTime::SREF            0                       # Time in different power states (Tick)
system.mem_ctrl.dram.rank1.pwrStateTime::PRE_PDN            0                       # Time in different power states (Tick)
system.mem_ctrl.dram.rank1.pwrStateTime::ACT  11635604953                       # Time in different power states (Tick)
system.mem_ctrl.dram.rank1.pwrStateTime::ACT_PDN            0                       # Time in different power states (Tick)
system.mem_ctrl.power_state.pwrStateResidencyTicks::UNDEFINED  17029907575                       # Cumulative time (in ticks) in various power states (Tick)
system.membus.transDist::ReadResp               18215                       # Transaction distribution (Count)
system.membus.transDist::WritebackDirty          3396                       # Transaction distribution (Count)
system.membus.transDist::CleanEvict             16018                       # Transaction distribution (Count)
system.membus.transDist::UpgradeReq                 1                       # Transaction distribution (Count)
system.membus.transDist::ReadExReq               3231                       # Transaction distribution (Count)
system.membus.transDist::ReadExResp              3231                       # Transaction distribution (Count)
system.membus.transDist::ReadSharedReq          18215                       # Transaction distribution (Count)
system.membus.pktCount_system.cpu.l1d.mem_side_port::system.mem_ctrl.port        53532                       # Packet count per connected requestor and responder (Count)
system.membus.pktCount_system.cpu.l1d.mem_side_port::total        53532                       # Packet count per connected requestor and responder (Count)
system.membus.pktCount_system.cpu.l1i.mem_side_port::system.mem_ctrl.port         8774                       # Packet count per connected requestor and responder (Count)
system.membus.pktCount_system.cpu.l1i.mem_side_port::total         8774                       # Packet count per connected requestor and responder (Count)
system.membus.pktCount::total                   62306                       # Packet count per connected requestor and responder (Count)
system.membus.pktSize_system.cpu.l1d.mem_side_port::system.mem_ctrl.port      1381184                       # Cumulative packet size per connected requestor and responder (Byte)
system.membus.pktSize_system.cpu.l1d.mem_side_port::total      1381184                       # Cumulative packet size per connected requestor and responder (Byte)
system.membus.pktSize_system.cpu.l1i.mem_side_port::system.mem_ctrl.port       208640                       # Cumulative packet size per connected requestor and responder (Byte)
system.membus.pktSize_system.cpu.l1i.mem_side_port::total       208640                       # Cumulative packet size per connected requestor and responder (Byte)
system.membus.pktSize::total                  1589824                       # Cumulative packet size per connected requestor and responder (Byte)
system.membus.snoops                                1                       # Total snoops (Count)
system.membus.snoopTraffic                         64                       # Total snoop traffic (Byte)
system.membus.snoopFanout::samples              21447                       # Request fanout histogram (Count)
system.membus.snoopFanout::mean              0.000466                       # Request fanout histogram (Count)
system.membus.snoopFanout::stdev             0.021589                       # Request fanout histogram (Count)
system.membus.snoopFanout::underflows               0      0.00%      0.00% # Request fanout histogram (Count)
system.membus.snoopFanout::0                    21437     99.95%     99.95% # Request fanout histogram (Count)
system.membus.snoopFanout::1                       10      0.05%    100.00% # Request fanout histogram (Count)
system.membus.snoopFanout::2                        0      0.00%    100.00% # Request fanout histogram (Count)
system.membus.snoopFanout::overflows                0      0.00%    100.00% # Request fanout histogram (Count)
system.membus.snoopFanout::min_value                0                       # Request fanout histogram (Count)
system.membus.snoopFanout::max_value                1                       # Request fanout histogram (Count)
system.membus.snoopFanout::total                21447                       # Request fanout histogram (Count)
system.membus.power_state.pwrStateResidencyTicks::UNDEFINED  17029907575                       # Cumulative time (in ticks) in various power states (Tick)
system.membus.reqLayer2.occupancy           725915185                       # Layer occupancy (ticks) (Tick)
system.membus.reqLayer2.utilization               0.0                       # Layer utilization (Ratio)
system.membus.respLayer2.occupancy         1229819067                       # Layer occupancy (ticks) (Tick)
system.membus.respLayer2.utilization              0.1                       # Layer utilization (Ratio)
system.membus.respLayer3.occupancy          221798112                       # Layer occupancy (ticks) (Tick)
system.membus.respLayer3.utilization              0.0                       # Layer utilization (Ratio)
system.membus.snoop_filter.totRequests          40861                       # Total number of requests made to the snoop filter. (Count)
system.membus.snoop_filter.hitSingleRequests        19416                       # Number of requests hitting in the snoop filter with a single holder of the requested data. (Count)
system.membus.snoop_filter.hitMultiRequests            8                       # Number of requests hitting in the snoop filter with multiple (>1) holders of the requested data. (Count)
system.membus.snoop_filter.totSnoops                0                       # Total number of snoops made to the snoop filter. (Count)
system.membus.snoop_filter.hitSingleSnoops            0                       # Number of snoops hitting in the snoop filter with a single holder of the requested data. (Count)
system.membus.snoop_filter.hitMultiSnoops            0                       # Number of snoops hitting in the snoop filter with multiple (>1) holders of the requested data. (Count)
system.workload.inst.arm                            0                       # number of arm instructions executed (Count)
system.workload.inst.quiesce                        0                       # number of quiesce instructions executed (Count)

---------- End Simulation Statistics   ----------
