
---------- Begin Simulation Statistics ----------
simSeconds                                   0.019217                       # Number of seconds simulated (Second)
simTicks                                  19216666238                       # Number of ticks simulated (Tick)
finalTick                                 19216666238                       # Number of ticks from beginning of simulation (restored from checkpoints and never reset) (Tick)
simFreq                                  1000000000000                       # The number of ticks per simulated second ((Tick/Second))
hostSeconds                                     37.81                       # Real time elapsed on the host (Second)
hostTickRate                                508270489                       # The number of ticks simulated per host second (ticks/s) ((Tick/Second))
hostMemory                                    8630560                       # Number of bytes of host memory used (Byte)
simInsts                                      2317878                       # Number of instructions simulated (Count)
simOps                                        4039671                       # Number of ops (including micro ops) simulated (Count)
hostInstRate                                    61306                       # Simulator instruction rate (inst/s) ((Count/Second))
hostOpRate                                     106847                       # Simulator op (including micro ops) rate (op/s) ((Count/Second))
system.clk_domain.clock                         13333                       # Clock period in ticks (Tick)
system.clk_domain.voltage_domain.voltage            1                       # Voltage in Volts (Volt)
system.cpu.numCycles                          1441287                       # Number of cpu cycles simulated (Cycle)
system.cpu.cpi                               0.621813                       # CPI: cycles per instruction (core level) ((Cycle/Count))
system.cpu.ipc                               1.608200                       # IPC: instructions per cycle (core level) ((Count/Cycle))
system.cpu.numWorkItemsStarted                      0                       # Number of work items this cpu started (Count)
system.cpu.numWorkItemsCompleted                    0                       # Number of work items this cpu completed (Count)
system.cpu.instsAdded                         4915613                       # Number of instructions added to the IQ (excludes non-spec) (Count)
system.cpu.nonSpecInstsAdded                     2661                       # Number of non-speculative instructions added to the IQ (Count)
system.cpu.instsIssued                        4637427                       # Number of instructions issued (Count)
system.cpu.squashedInstsIssued                   7182                       # Number of squashed instructions issued (Count)
system.cpu.squashedInstsExamined               878569                       # Number of squashed instructions iterated over during squash; mainly for profiling (Count)
system.cpu.squashedOperandsExamined           1531854                       # Number of squashed operands that are examined and possibly removed from graph (Count)
system.cpu.squashedNonSpecRemoved                 182                       # Number of squashed non-spec instructions that were removed (Count)
system.cpu.numIssuedDist::samples             1438261                       # Number of insts issued each cycle (Count)
system.cpu.numIssuedDist::mean               3.224329                       # Number of insts issued each cycle (Count)
system.cpu.numIssuedDist::stdev              2.541940                       # Number of insts issued each cycle (Count)
system.cpu.numIssuedDist::underflows                0      0.00%      0.00% # Number of insts issued each cycle (Count)
system.cpu.numIssuedDist::0                    331498     23.05%     23.05% # Number of insts issued each cycle (Count)
system.cpu.numIssuedDist::1                    119340      8.30%     31.35% # Number of insts issued each cycle (Count)
system.cpu.numIssuedDist::2                    152570     10.61%     41.95% # Number of insts issued each cycle (Count)
system.cpu.numIssuedDist::3                    204556     14.22%     56.18% # Number of insts issued each cycle (Count)
system.cpu.numIssuedDist::4                    150679     10.48%     66.65% # Number of insts issued each cycle (Count)
system.cpu.numIssuedDist::5                    148312     10.31%     76.96% # Number of insts issued each cycle (Count)
system.cpu.numIssuedDist::6                    142328      9.90%     86.86% # Number of insts issued each cycle (Count)
system.cpu.numIssuedDist::7                    110789      7.70%     94.56% # Number of insts issued each cycle (Count)
system.cpu.numIssuedDist::8                     78189      5.44%    100.00% # Number of insts issued each cycle (Count)
system.cpu.numIssuedDist::overflows                 0      0.00%    100.00% # Number of insts issued each cycle (Count)
system.cpu.numIssuedDist::min_value                 0                       # Number of insts issued each cycle (Count)
system.cpu.numIssuedDist::max_value                 8                       # Number of insts issued each cycle (Count)
system.cpu.numIssuedDist::total               1438261                       # Number of insts issued each cycle (Count)
system.cpu.statFuBusy::No_OpClass                   0      0.00%      0.00% # attempts to use FU when none available (Count)
system.cpu.statFuBusy::IntAlu                   93458     77.51%     77.51% # attempts to use FU when none available (Count)
system.cpu.statFuBusy::IntMult                      0      0.00%     77.51% # attempts to use FU when none available (Count)
system.cpu.statFuBusy::IntDiv                       0      0.00%     77.51% # attempts to use FU when none available (Count)
system.cpu.statFuBusy::FloatAdd                     0      0.00%     77.51% # attempts to use FU when none available (Count)
system.cpu.statFuBusy::FloatCmp                     0      0.00%     77.51% # attempts to use FU when none available (Count)
system.cpu.statFuBusy::FloatCvt                     0      0.00%     77.51% # attempts to use FU when none available (Count)
system.cpu.statFuBusy::FloatMult                    0      0.00%     77.51% # attempts to use FU when none available (Count)
system.cpu.statFuBusy::FloatMultAcc                 0      0.00%     77.51% # attempts to use FU when none available (Count)
system.cpu.statFuBusy::FloatDiv                     0      0.00%     77.51% # attempts to use FU when none available (Count)
system.cpu.statFuBusy::FloatMisc                    0      0.00%     77.51% # attempts to use FU when none available (Count)
system.cpu.statFuBusy::FloatSqrt                    0      0.00%     77.51% # attempts to use FU when none available (Count)
system.cpu.statFuBusy::SimdAdd                     14      0.01%     77.52% # attempts to use FU when none available (Count)
system.cpu.statFuBusy::SimdAddAcc                   0      0.00%     77.52% # attempts to use FU when none available (Count)
system.cpu.statFuBusy::SimdAlu                    107      0.09%     77.61% # attempts to use FU when none available (Count)
system.cpu.statFuBusy::SimdCmp                      0      0.00%     77.61% # attempts to use FU when none available (Count)
system.cpu.statFuBusy::SimdCvt                    198      0.16%     77.77% # attempts to use FU when none available (Count)
system.cpu.statFuBusy::SimdMisc                    32      0.03%     77.80% # attempts to use FU when none available (Count)
system.cpu.statFuBusy::SimdMult                     0      0.00%     77.80% # attempts to use FU when none available (Count)
system.cpu.statFuBusy::SimdMultAcc                  0      0.00%     77.80% # attempts to use FU when none available (Count)
system.cpu.statFuBusy::SimdMatMultAcc               0      0.00%     77.80% # attempts to use FU when none available (Count)
system.cpu.statFuBusy::SimdShift                   27      0.02%     77.82% # attempts to use FU when none available (Count)
system.cpu.statFuBusy::SimdShiftAcc                 0      0.00%     77.82% # attempts to use FU when none available (Count)
system.cpu.statFuBusy::SimdDiv                      0      0.00%     77.82% # attempts to use FU when none available (Count)
system.cpu.statFuBusy::SimdSqrt                     0      0.00%     77.82% # attempts to use FU when none available (Count)
system.cpu.statFuBusy::SimdFloatAdd                 0      0.00%     77.82% # attempts to use FU when none available (Count)
system.cpu.statFuBusy::SimdFloatAlu                 0      0.00%     77.82% # attempts to use FU when none available (Count)
system.cpu.statFuBusy::SimdFloatCmp                 0      0.00%     77.82% # attempts to use FU when none available (Count)
system.cpu.statFuBusy::SimdFloatCvt                 0      0.00%     77.82% # attempts to use FU when none available (Count)
system.cpu.statFuBusy::SimdFloatDiv                 0      0.00%     77.82% # attempts to use FU when none available (Count)
system.cpu.statFuBusy::SimdFloatMisc                0      0.00%     77.82% # attempts to use FU when none available (Count)
system.cpu.statFuBusy::SimdFloatMult                0      0.00%     77.82% # attempts to use FU when none available (Count)
system.cpu.statFuBusy::SimdFloatMultAcc             0      0.00%     77.82% # attempts to use FU when none available (Count)
system.cpu.statFuBusy::SimdFloatMatMultAcc            0      0.00%     77.82% # attempts to use FU when none available (Count)
system.cpu.statFuBusy::SimdFloatSqrt                0      0.00%     77.82% # attempts to use FU when none available (Count)
system.cpu.statFuBusy::SimdReduceAdd                0      0.00%     77.82% # attempts to use FU when none available (Count)
system.cpu.statFuBusy::SimdReduceAlu                0      0.00%     77.82% # attempts to use FU when none available (Count)
system.cpu.statFuBusy::SimdReduceCmp                0      0.00%     77.82% # attempts to use FU when none available (Count)
system.cpu.statFuBusy::SimdFloatReduceAdd            0      0.00%     77.82% # attempts to use FU when none available (Count)
system.cpu.statFuBusy::SimdFloatReduceCmp            0      0.00%     77.82% # attempts to use FU when none available (Count)
system.cpu.statFuBusy::SimdAes                      0      0.00%     77.82% # attempts to use FU when none available (Count)
system.cpu.statFuBusy::SimdAesMix                   0      0.00%     77.82% # attempts to use FU when none available (Count)
system.cpu.statFuBusy::SimdSha1Hash                 0      0.00%     77.82% # attempts to use FU when none available (Count)
system.cpu.statFuBusy::SimdSha1Hash2                0      0.00%     77.82% # attempts to use FU when none available (Count)
system.cpu.statFuBusy::SimdSha256Hash               0      0.00%     77.82% # attempts to use FU when none available (Count)
system.cpu.statFuBusy::SimdSha256Hash2              0      0.00%     77.82% # attempts to use FU when none available (Count)
system.cpu.statFuBusy::SimdShaSigma2                0      0.00%     77.82% # attempts to use FU when none available (Count)
system.cpu.statFuBusy::SimdShaSigma3                0      0.00%     77.82% # attempts to use FU when none available (Count)
system.cpu.statFuBusy::SimdPredAlu                  0      0.00%     77.82% # attempts to use FU when none available (Count)
system.cpu.statFuBusy::Matrix                       0      0.00%     77.82% # attempts to use FU when none available (Count)
system.cpu.statFuBusy::MatrixMov                    0      0.00%     77.82% # attempts to use FU when none available (Count)
system.cpu.statFuBusy::MatrixOP                     0      0.00%     77.82% # attempts to use FU when none available (Count)
system.cpu.statFuBusy::MemRead                  14453     11.99%     89.80% # attempts to use FU when none available (Count)
system.cpu.statFuBusy::MemWrite                 11113      9.22%     99.02% # attempts to use FU when none available (Count)
system.cpu.statFuBusy::FloatMemRead               728      0.60%     99.62% # attempts to use FU when none available (Count)
system.cpu.statFuBusy::FloatMemWrite              453      0.38%    100.00% # attempts to use FU when none available (Count)
system.cpu.statFuBusy::IprAccess                    0      0.00%    100.00% # attempts to use FU when none available (Count)
system.cpu.statFuBusy::InstPrefetch                 0      0.00%    100.00% # attempts to use FU when none available (Count)
system.cpu.statFuBusy::SimdUnitStrideLoad            0      0.00%    100.00% # attempts to use FU when none available (Count)
system.cpu.statFuBusy::SimdUnitStrideStore            0      0.00%    100.00% # attempts to use FU when none available (Count)
system.cpu.statFuBusy::SimdUnitStrideMaskLoad            0      0.00%    100.00% # attempts to use FU when none available (Count)
system.cpu.statFuBusy::SimdUnitStrideMaskStore            0      0.00%    100.00% # attempts to use FU when none available (Count)
system.cpu.statFuBusy::SimdStridedLoad              0      0.00%    100.00% # attempts to use FU when none available (Count)
system.cpu.statFuBusy::SimdStridedStore             0      0.00%    100.00% # attempts to use FU when none available (Count)
system.cpu.statFuBusy::SimdIndexedLoad              0      0.00%    100.00% # attempts to use FU when none available (Count)
system.cpu.statFuBusy::SimdIndexedStore             0      0.00%    100.00% # attempts to use FU when none available (Count)
system.cpu.statFuBusy::SimdWholeRegisterLoad            0      0.00%    100.00% # attempts to use FU when none available (Count)
system.cpu.statFuBusy::SimdWholeRegisterStore            0      0.00%    100.00% # attempts to use FU when none available (Count)
system.cpu.statFuBusy::SimdUnitStrideFaultOnlyFirstLoad            0      0.00%    100.00% # attempts to use FU when none available (Count)
system.cpu.statFuBusy::SimdUnitStrideSegmentedLoad            0      0.00%    100.00% # attempts to use FU when none available (Count)
system.cpu.statFuBusy::SimdUnitStrideSegmentedStore            0      0.00%    100.00% # attempts to use FU when none available (Count)
system.cpu.statFuBusy::SimdExt                      0      0.00%    100.00% # attempts to use FU when none available (Count)
system.cpu.statFuBusy::SimdFloatExt                 0      0.00%    100.00% # attempts to use FU when none available (Count)
system.cpu.statFuBusy::SimdConfig                   0      0.00%    100.00% # attempts to use FU when none available (Count)
system.cpu.statIssuedInstType_0::No_OpClass        29013      0.63%      0.63% # Number of instructions issued per FU type, per thread (Count)
system.cpu.statIssuedInstType_0::IntAlu       3579432     77.19%     77.81% # Number of instructions issued per FU type, per thread (Count)
system.cpu.statIssuedInstType_0::IntMult          129      0.00%     77.81% # Number of instructions issued per FU type, per thread (Count)
system.cpu.statIssuedInstType_0::IntDiv         43091      0.93%     78.74% # Number of instructions issued per FU type, per thread (Count)
system.cpu.statIssuedInstType_0::FloatAdd         9077      0.20%     78.94% # Number of instructions issued per FU type, per thread (Count)
system.cpu.statIssuedInstType_0::FloatCmp            0      0.00%     78.94% # Number of instructions issued per FU type, per thread (Count)
system.cpu.statIssuedInstType_0::FloatCvt         1768      0.04%     78.98% # Number of instructions issued per FU type, per thread (Count)
system.cpu.statIssuedInstType_0::FloatMult            0      0.00%     78.98% # Number of instructions issued per FU type, per thread (Count)
system.cpu.statIssuedInstType_0::FloatMultAcc            0      0.00%     78.98% # Number of instructions issued per FU type, per thread (Count)
system.cpu.statIssuedInstType_0::FloatDiv            0      0.00%     78.98% # Number of instructions issued per FU type, per thread (Count)
system.cpu.statIssuedInstType_0::FloatMisc            0      0.00%     78.98% # Number of instructions issued per FU type, per thread (Count)
system.cpu.statIssuedInstType_0::FloatSqrt            0      0.00%     78.98% # Number of instructions issued per FU type, per thread (Count)
system.cpu.statIssuedInstType_0::SimdAdd         7631      0.16%     79.14% # Number of instructions issued per FU type, per thread (Count)
system.cpu.statIssuedInstType_0::SimdAddAcc            0      0.00%     79.14% # Number of instructions issued per FU type, per thread (Count)
system.cpu.statIssuedInstType_0::SimdAlu        17486      0.38%     79.52% # Number of instructions issued per FU type, per thread (Count)
system.cpu.statIssuedInstType_0::SimdCmp            6      0.00%     79.52% # Number of instructions issued per FU type, per thread (Count)
system.cpu.statIssuedInstType_0::SimdCvt        16172      0.35%     79.87% # Number of instructions issued per FU type, per thread (Count)
system.cpu.statIssuedInstType_0::SimdMisc        15368      0.33%     80.20% # Number of instructions issued per FU type, per thread (Count)
system.cpu.statIssuedInstType_0::SimdMult            0      0.00%     80.20% # Number of instructions issued per FU type, per thread (Count)
system.cpu.statIssuedInstType_0::SimdMultAcc            0      0.00%     80.20% # Number of instructions issued per FU type, per thread (Count)
system.cpu.statIssuedInstType_0::SimdMatMultAcc            0      0.00%     80.20% # Number of instructions issued per FU type, per thread (Count)
system.cpu.statIssuedInstType_0::SimdShift         3279      0.07%     80.27% # Number of instructions issued per FU type, per thread (Count)
system.cpu.statIssuedInstType_0::SimdShiftAcc            0      0.00%     80.27% # Number of instructions issued per FU type, per thread (Count)
system.cpu.statIssuedInstType_0::SimdDiv            0      0.00%     80.27% # Number of instructions issued per FU type, per thread (Count)
system.cpu.statIssuedInstType_0::SimdSqrt            0      0.00%     80.27% # Number of instructions issued per FU type, per thread (Count)
system.cpu.statIssuedInstType_0::SimdFloatAdd            1      0.00%     80.27% # Number of instructions issued per FU type, per thread (Count)
system.cpu.statIssuedInstType_0::SimdFloatAlu            0      0.00%     80.27% # Number of instructions issued per FU type, per thread (Count)
system.cpu.statIssuedInstType_0::SimdFloatCmp            0      0.00%     80.27% # Number of instructions issued per FU type, per thread (Count)
system.cpu.statIssuedInstType_0::SimdFloatCvt            4      0.00%     80.27% # Number of instructions issued per FU type, per thread (Count)
system.cpu.statIssuedInstType_0::SimdFloatDiv            1      0.00%     80.27% # Number of instructions issued per FU type, per thread (Count)
system.cpu.statIssuedInstType_0::SimdFloatMisc            0      0.00%     80.27% # Number of instructions issued per FU type, per thread (Count)
system.cpu.statIssuedInstType_0::SimdFloatMult            0      0.00%     80.27% # Number of instructions issued per FU type, per thread (Count)
system.cpu.statIssuedInstType_0::SimdFloatMultAcc            0      0.00%     80.27% # Number of instructions issued per FU type, per thread (Count)
system.cpu.statIssuedInstType_0::SimdFloatMatMultAcc            0      0.00%     80.27% # Number of instructions issued per FU type, per thread (Count)
system.cpu.statIssuedInstType_0::SimdFloatSqrt            0      0.00%     80.27% # Number of instructions issued per FU type, per thread (Count)
system.cpu.statIssuedInstType_0::SimdReduceAdd            0      0.00%     80.27% # Number of instructions issued per FU type, per thread (Count)
system.cpu.statIssuedInstType_0::SimdReduceAlu            0      0.00%     80.27% # Number of instructions issued per FU type, per thread (Count)
system.cpu.statIssuedInstType_0::SimdReduceCmp            0      0.00%     80.27% # Number of instructions issued per FU type, per thread (Count)
system.cpu.statIssuedInstType_0::SimdFloatReduceAdd            0      0.00%     80.27% # Number of instructions issued per FU type, per thread (Count)
system.cpu.statIssuedInstType_0::SimdFloatReduceCmp            0      0.00%     80.27% # Number of instructions issued per FU type, per thread (Count)
system.cpu.statIssuedInstType_0::SimdAes            0      0.00%     80.27% # Number of instructions issued per FU type, per thread (Count)
system.cpu.statIssuedInstType_0::SimdAesMix            0      0.00%     80.27% # Number of instructions issued per FU type, per thread (Count)
system.cpu.statIssuedInstType_0::SimdSha1Hash            0      0.00%     80.27% # Number of instructions issued per FU type, per thread (Count)
system.cpu.statIssuedInstType_0::SimdSha1Hash2            0      0.00%     80.27% # Number of instructions issued per FU type, per thread (Count)
system.cpu.statIssuedInstType_0::SimdSha256Hash            0      0.00%     80.27% # Number of instructions issued per FU type, per thread (Count)
system.cpu.statIssuedInstType_0::SimdSha256Hash2            0      0.00%     80.27% # Number of instructions issued per FU type, per thread (Count)
system.cpu.statIssuedInstType_0::SimdShaSigma2            0      0.00%     80.27% # Number of instructions issued per FU type, per thread (Count)
system.cpu.statIssuedInstType_0::SimdShaSigma3            0      0.00%     80.27% # Number of instructions issued per FU type, per thread (Count)
system.cpu.statIssuedInstType_0::SimdPredAlu            0      0.00%     80.27% # Number of instructions issued per FU type, per thread (Count)
system.cpu.statIssuedInstType_0::Matrix             0      0.00%     80.27% # Number of instructions issued per FU type, per thread (Count)
system.cpu.statIssuedInstType_0::MatrixMov            0      0.00%     80.27% # Number of instructions issued per FU type, per thread (Count)
system.cpu.statIssuedInstType_0::MatrixOP            0      0.00%     80.27% # Number of instructions issued per FU type, per thread (Count)
system.cpu.statIssuedInstType_0::MemRead       615667     13.28%     93.55% # Number of instructions issued per FU type, per thread (Count)
system.cpu.statIssuedInstType_0::MemWrite       255983      5.52%     99.07% # Number of instructions issued per FU type, per thread (Count)
system.cpu.statIssuedInstType_0::FloatMemRead        26436      0.57%     99.64% # Number of instructions issued per FU type, per thread (Count)
system.cpu.statIssuedInstType_0::FloatMemWrite        16883      0.36%    100.00% # Number of instructions issued per FU type, per thread (Count)
system.cpu.statIssuedInstType_0::IprAccess            0      0.00%    100.00% # Number of instructions issued per FU type, per thread (Count)
system.cpu.statIssuedInstType_0::InstPrefetch            0      0.00%    100.00% # Number of instructions issued per FU type, per thread (Count)
system.cpu.statIssuedInstType_0::SimdUnitStrideLoad            0      0.00%    100.00% # Number of instructions issued per FU type, per thread (Count)
system.cpu.statIssuedInstType_0::SimdUnitStrideStore            0      0.00%    100.00% # Number of instructions issued per FU type, per thread (Count)
system.cpu.statIssuedInstType_0::SimdUnitStrideMaskLoad            0      0.00%    100.00% # Number of instructions issued per FU type, per thread (Count)
system.cpu.statIssuedInstType_0::SimdUnitStrideMaskStore            0      0.00%    100.00% # Number of instructions issued per FU type, per thread (Count)
system.cpu.statIssuedInstType_0::SimdStridedLoad            0      0.00%    100.00% # Number of instructions issued per FU type, per thread (Count)
system.cpu.statIssuedInstType_0::SimdStridedStore            0      0.00%    100.00% # Number of instructions issued per FU type, per thread (Count)
system.cpu.statIssuedInstType_0::SimdIndexedLoad            0      0.00%    100.00% # Number of instructions issued per FU type, per thread (Count)
system.cpu.statIssuedInstType_0::SimdIndexedStore            0      0.00%    100.00% # Number of instructions issued per FU type, per thread (Count)
system.cpu.statIssuedInstType_0::SimdWholeRegisterLoad            0      0.00%    100.00% # Number of instructions issued per FU type, per thread (Count)
system.cpu.statIssuedInstType_0::SimdWholeRegisterStore            0      0.00%    100.00% # Number of instructions issued per FU type, per thread (Count)
system.cpu.statIssuedInstType_0::SimdUnitStrideFaultOnlyFirstLoad            0      0.00%    100.00% # Number of instructions issued per FU type, per thread (Count)
system.cpu.statIssuedInstType_0::SimdUnitStrideSegmentedLoad            0      0.00%    100.00% # Number of instructions issued per FU type, per thread (Count)
system.cpu.statIssuedInstType_0::SimdUnitStrideSegmentedStore            0      0.00%    100.00% # Number of instructions issued per FU type, per thread (Count)
system.cpu.statIssuedInstType_0::SimdExt            0      0.00%    100.00% # Number of instructions issued per FU type, per thread (Count)
system.cpu.statIssuedInstType_0::SimdFloatExt            0      0.00%    100.00% # Number of instructions issued per FU type, per thread (Count)
system.cpu.statIssuedInstType_0::SimdConfig            0      0.00%    100.00% # Number of instructions issued per FU type, per thread (Count)
system.cpu.statIssuedInstType_0::total        4637427                       # Number of instructions issued per FU type, per thread (Count)
system.cpu.issueRate                         3.217560                       # Inst issue rate ((Count/Cycle))
system.cpu.fuBusy                              120583                       # FU busy when requested (Count)
system.cpu.fuBusyRate                        0.026002                       # FU busy rate (busy events/executed inst) ((Count/Count))
system.cpu.intInstQueueReads                 10601193                       # Number of integer instruction queue reads (Count)
system.cpu.intInstQueueWrites                 5615969                       # Number of integer instruction queue writes (Count)
system.cpu.intInstQueueWakeupAccesses         4468056                       # Number of integer instruction queue wakeup accesses (Count)
system.cpu.fpInstQueueReads                    239684                       # Number of floating instruction queue reads (Count)
system.cpu.fpInstQueueWrites                   181017                       # Number of floating instruction queue writes (Count)
system.cpu.fpInstQueueWakeupAccesses           113923                       # Number of floating instruction queue wakeup accesses (Count)
system.cpu.vecInstQueueReads                        0                       # Number of vector instruction queue reads (Count)
system.cpu.vecInstQueueWrites                       0                       # Number of vector instruction queue writes (Count)
system.cpu.vecInstQueueWakeupAccesses               0                       # Number of vector instruction queue wakeup accesses (Count)
system.cpu.intAluAccesses                     4608635                       # Number of integer alu accesses (Count)
system.cpu.fpAluAccesses                       120362                       # Number of floating point alu accesses (Count)
system.cpu.vecAluAccesses                           0                       # Number of vector alu accesses (Count)
system.cpu.numSquashedInsts                     32734                       # Number of squashed instructions skipped in execute (Count)
system.cpu.numSwp                                   0                       # Number of swp insts executed (Count)
system.cpu.timesIdled                             887                       # Number of times that the entire CPU went into an idle state and unscheduled itself (Count)
system.cpu.idleCycles                            3026                       # Total number of cycles that the CPU has spent unscheduled due to idling (Cycle)
system.cpu.MemDepUnit__0.insertedLoads         672723                       # Number of loads inserted to the mem dependence unit. (Count)
system.cpu.MemDepUnit__0.insertedStores        287242                       # Number of stores inserted to the mem dependence unit. (Count)
system.cpu.MemDepUnit__0.conflictingLoads        27319                       # Number of conflicting loads. (Count)
system.cpu.MemDepUnit__0.conflictingStores        15746                       # Number of conflicting stores. (Count)
system.cpu.MemDepUnit__1.insertedLoads              0                       # Number of loads inserted to the mem dependence unit. (Count)
system.cpu.MemDepUnit__1.insertedStores             0                       # Number of stores inserted to the mem dependence unit. (Count)
system.cpu.MemDepUnit__1.conflictingLoads            0                       # Number of conflicting loads. (Count)
system.cpu.MemDepUnit__1.conflictingStores            0                       # Number of conflicting stores. (Count)
system.cpu.MemDepUnit__2.insertedLoads              0                       # Number of loads inserted to the mem dependence unit. (Count)
system.cpu.MemDepUnit__2.insertedStores             0                       # Number of stores inserted to the mem dependence unit. (Count)
system.cpu.MemDepUnit__2.conflictingLoads            0                       # Number of conflicting loads. (Count)
system.cpu.MemDepUnit__2.conflictingStores            0                       # Number of conflicting stores. (Count)
system.cpu.MemDepUnit__3.insertedLoads              0                       # Number of loads inserted to the mem dependence unit. (Count)
system.cpu.MemDepUnit__3.insertedStores             0                       # Number of stores inserted to the mem dependence unit. (Count)
system.cpu.MemDepUnit__3.conflictingLoads            0                       # Number of conflicting loads. (Count)
system.cpu.MemDepUnit__3.conflictingStores            0                       # Number of conflicting stores. (Count)
system.cpu.branchPred.lookups_0::NoBranch         2065      0.40%      0.40% # Number of BP lookups (Count)
system.cpu.branchPred.lookups_0::Return         16552      3.23%      3.63% # Number of BP lookups (Count)
system.cpu.branchPred.lookups_0::CallDirect        21785      4.25%      7.88% # Number of BP lookups (Count)
system.cpu.branchPred.lookups_0::CallIndirect         1458      0.28%      8.16% # Number of BP lookups (Count)
system.cpu.branchPred.lookups_0::DirectCond       436697     85.16%     93.32% # Number of BP lookups (Count)
system.cpu.branchPred.lookups_0::DirectUncond        22508      4.39%     97.71% # Number of BP lookups (Count)
system.cpu.branchPred.lookups_0::IndirectCond            0      0.00%     97.71% # Number of BP lookups (Count)
system.cpu.branchPred.lookups_0::IndirectUncond        11731      2.29%    100.00% # Number of BP lookups (Count)
system.cpu.branchPred.lookups_0::total         512796                       # Number of BP lookups (Count)
system.cpu.branchPred.squashes_0::NoBranch         1832      1.34%      1.34% # Number of branches that got squashed (completely removed) as an earlier branch was mispredicted. (Count)
system.cpu.branchPred.squashes_0::Return         3905      2.86%      4.21% # Number of branches that got squashed (completely removed) as an earlier branch was mispredicted. (Count)
system.cpu.branchPred.squashes_0::CallDirect         9766      7.16%     11.36% # Number of branches that got squashed (completely removed) as an earlier branch was mispredicted. (Count)
system.cpu.branchPred.squashes_0::CallIndirect          825      0.60%     11.97% # Number of branches that got squashed (completely removed) as an earlier branch was mispredicted. (Count)
system.cpu.branchPred.squashes_0::DirectCond       106213     77.86%     89.83% # Number of branches that got squashed (completely removed) as an earlier branch was mispredicted. (Count)
system.cpu.branchPred.squashes_0::DirectUncond         7501      5.50%     95.33% # Number of branches that got squashed (completely removed) as an earlier branch was mispredicted. (Count)
system.cpu.branchPred.squashes_0::IndirectCond            0      0.00%     95.33% # Number of branches that got squashed (completely removed) as an earlier branch was mispredicted. (Count)
system.cpu.branchPred.squashes_0::IndirectUncond         6373      4.67%    100.00% # Number of branches that got squashed (completely removed) as an earlier branch was mispredicted. (Count)
system.cpu.branchPred.squashes_0::total        136415                       # Number of branches that got squashed (completely removed) as an earlier branch was mispredicted. (Count)
system.cpu.branchPred.corrected_0::NoBranch          383      2.18%      2.18% # Number of branches that got corrected but not yet commited. Branches get corrected by decode or after execute. Also a branch misprediction can be detected out-of-order. Therefore, a corrected branch might not end up beeing committed in case an even earlier branch was mispredicted (Count)
system.cpu.branchPred.corrected_0::Return           12      0.07%      2.25% # Number of branches that got corrected but not yet commited. Branches get corrected by decode or after execute. Also a branch misprediction can be detected out-of-order. Therefore, a corrected branch might not end up beeing committed in case an even earlier branch was mispredicted (Count)
system.cpu.branchPred.corrected_0::CallDirect          828      4.71%      6.96% # Number of branches that got corrected but not yet commited. Branches get corrected by decode or after execute. Also a branch misprediction can be detected out-of-order. Therefore, a corrected branch might not end up beeing committed in case an even earlier branch was mispredicted (Count)
system.cpu.branchPred.corrected_0::CallIndirect          264      1.50%      8.46% # Number of branches that got corrected but not yet commited. Branches get corrected by decode or after execute. Also a branch misprediction can be detected out-of-order. Therefore, a corrected branch might not end up beeing committed in case an even earlier branch was mispredicted (Count)
system.cpu.branchPred.corrected_0::DirectCond        14167     80.62%     89.08% # Number of branches that got corrected but not yet commited. Branches get corrected by decode or after execute. Also a branch misprediction can be detected out-of-order. Therefore, a corrected branch might not end up beeing committed in case an even earlier branch was mispredicted (Count)
system.cpu.branchPred.corrected_0::DirectUncond          665      3.78%     92.86% # Number of branches that got corrected but not yet commited. Branches get corrected by decode or after execute. Also a branch misprediction can be detected out-of-order. Therefore, a corrected branch might not end up beeing committed in case an even earlier branch was mispredicted (Count)
system.cpu.branchPred.corrected_0::IndirectCond            0      0.00%     92.86% # Number of branches that got corrected but not yet commited. Branches get corrected by decode or after execute. Also a branch misprediction can be detected out-of-order. Therefore, a corrected branch might not end up beeing committed in case an even earlier branch was mispredicted (Count)
system.cpu.branchPred.corrected_0::IndirectUncond         1254      7.14%    100.00% # Number of branches that got corrected but not yet commited. Branches get corrected by decode or after execute. Also a branch misprediction can be detected out-of-order. Therefore, a corrected branch might not end up beeing committed in case an even earlier branch was mispredicted (Count)
system.cpu.branchPred.corrected_0::total        17573                       # Number of branches that got corrected but not yet commited. Branches get corrected by decode or after execute. Also a branch misprediction can be detected out-of-order. Therefore, a corrected branch might not end up beeing committed in case an even earlier branch was mispredicted (Count)
system.cpu.branchPred.earlyResteers_0::NoBranch            0                       # Number of branches that got redirected after decode. (Count)
system.cpu.branchPred.earlyResteers_0::Return            0                       # Number of branches that got redirected after decode. (Count)
system.cpu.branchPred.earlyResteers_0::CallDirect            0                       # Number of branches that got redirected after decode. (Count)
system.cpu.branchPred.earlyResteers_0::CallIndirect            0                       # Number of branches that got redirected after decode. (Count)
system.cpu.branchPred.earlyResteers_0::DirectCond            0                       # Number of branches that got redirected after decode. (Count)
system.cpu.branchPred.earlyResteers_0::DirectUncond            0                       # Number of branches that got redirected after decode. (Count)
system.cpu.branchPred.earlyResteers_0::IndirectCond            0                       # Number of branches that got redirected after decode. (Count)
system.cpu.branchPred.earlyResteers_0::IndirectUncond            0                       # Number of branches that got redirected after decode. (Count)
system.cpu.branchPred.earlyResteers_0::total            0                       # Number of branches that got redirected after decode. (Count)
system.cpu.branchPred.committed_0::NoBranch          233      0.06%      0.06% # Number of branches finally committed  (Count)
system.cpu.branchPred.committed_0::Return        12645      3.36%      3.42% # Number of branches finally committed  (Count)
system.cpu.branchPred.committed_0::CallDirect        12019      3.19%      6.61% # Number of branches finally committed  (Count)
system.cpu.branchPred.committed_0::CallIndirect          633      0.17%      6.78% # Number of branches finally committed  (Count)
system.cpu.branchPred.committed_0::DirectCond       330481     87.81%     94.59% # Number of branches finally committed  (Count)
system.cpu.branchPred.committed_0::DirectUncond        15006      3.99%     98.58% # Number of branches finally committed  (Count)
system.cpu.branchPred.committed_0::IndirectCond            0      0.00%     98.58% # Number of branches finally committed  (Count)
system.cpu.branchPred.committed_0::IndirectUncond         5358      1.42%    100.00% # Number of branches finally committed  (Count)
system.cpu.branchPred.committed_0::total       376375                       # Number of branches finally committed  (Count)
system.cpu.branchPred.mispredicted_0::NoBranch          233      1.60%      1.60% # Number of committed branches that were mispredicted. (Count)
system.cpu.branchPred.mispredicted_0::Return            0      0.00%      1.60% # Number of committed branches that were mispredicted. (Count)
system.cpu.branchPred.mispredicted_0::CallDirect          508      3.50%      5.10% # Number of committed branches that were mispredicted. (Count)
system.cpu.branchPred.mispredicted_0::CallIndirect          238      1.64%      6.74% # Number of committed branches that were mispredicted. (Count)
system.cpu.branchPred.mispredicted_0::DirectCond        11965     82.39%     89.13% # Number of committed branches that were mispredicted. (Count)
system.cpu.branchPred.mispredicted_0::DirectUncond          388      2.67%     91.80% # Number of committed branches that were mispredicted. (Count)
system.cpu.branchPred.mispredicted_0::IndirectCond            0      0.00%     91.80% # Number of committed branches that were mispredicted. (Count)
system.cpu.branchPred.mispredicted_0::IndirectUncond         1191      8.20%    100.00% # Number of committed branches that were mispredicted. (Count)
system.cpu.branchPred.mispredicted_0::total        14523                       # Number of committed branches that were mispredicted. (Count)
system.cpu.branchPred.targetProvider_0::NoTarget       229992     44.85%     44.85% # The component providing the target for taken branches (Count)
system.cpu.branchPred.targetProvider_0::BTB       260825     50.86%     95.71% # The component providing the target for taken branches (Count)
system.cpu.branchPred.targetProvider_0::RAS        16551      3.23%     98.94% # The component providing the target for taken branches (Count)
system.cpu.branchPred.targetProvider_0::Indirect         5428      1.06%    100.00% # The component providing the target for taken branches (Count)
system.cpu.branchPred.targetProvider_0::total       512796                       # The component providing the target for taken branches (Count)
system.cpu.branchPred.targetWrong_0::NoBranch         8578     55.56%     55.56% # Number of branches where the target was incorrect or not available at prediction time. (Count)
system.cpu.branchPred.targetWrong_0::Return         6710     43.46%     99.03% # Number of branches where the target was incorrect or not available at prediction time. (Count)
system.cpu.branchPred.targetWrong_0::CallDirect           12      0.08%     99.11% # Number of branches where the target was incorrect or not available at prediction time. (Count)
system.cpu.branchPred.targetWrong_0::CallIndirect          138      0.89%    100.00% # Number of branches where the target was incorrect or not available at prediction time. (Count)
system.cpu.branchPred.targetWrong_0::DirectCond            0      0.00%    100.00% # Number of branches where the target was incorrect or not available at prediction time. (Count)
system.cpu.branchPred.targetWrong_0::DirectUncond            0      0.00%    100.00% # Number of branches where the target was incorrect or not available at prediction time. (Count)
system.cpu.branchPred.targetWrong_0::IndirectCond            0      0.00%    100.00% # Number of branches where the target was incorrect or not available at prediction time. (Count)
system.cpu.branchPred.targetWrong_0::IndirectUncond            0      0.00%    100.00% # Number of branches where the target was incorrect or not available at prediction time. (Count)
system.cpu.branchPred.targetWrong_0::total        15438                       # Number of branches where the target was incorrect or not available at prediction time. (Count)
system.cpu.branchPred.condPredicted            438762                       # Number of conditional branches predicted (Count)
system.cpu.branchPred.condPredictedTaken       221437                       # Number of conditional branches predicted as taken (Count)
system.cpu.branchPred.condIncorrect             17573                       # Number of conditional branches incorrect (Count)
system.cpu.branchPred.predTakenBTBMiss           1851                       # Number of branches predicted taken but missed in BTB (Count)
system.cpu.branchPred.NotTakenMispredicted        10188                       # Number branches predicted 'not taken' but turned out to be taken (Count)
system.cpu.branchPred.TakenMispredicted          7385                       # Number branches predicted taken but are actually not taken (Count)
system.cpu.branchPred.BTBLookups               512796                       # Number of BTB lookups (Count)
system.cpu.branchPred.BTBUpdates                 8275                       # Number of BTB updates (Count)
system.cpu.branchPred.BTBHits                  349217                       # Number of BTB hits (Count)
system.cpu.branchPred.BTBHitRatio            0.681006                       # BTB Hit Ratio (Ratio)
system.cpu.branchPred.BTBMispredicted            2747                       # Number BTB mispredictions. No target found or target wrong (Count)
system.cpu.branchPred.indirectLookups           13189                       # Number of indirect predictor lookups. (Count)
system.cpu.branchPred.indirectHits               5428                       # Number of indirect target hits. (Count)
system.cpu.branchPred.indirectMisses             7761                       # Number of indirect misses. (Count)
system.cpu.branchPred.indirectMispredicted            0                       # Number of mispredicted indirect branches. (Count)
system.cpu.branchPred.btb.lookups::NoBranch         2065      0.40%      0.40% # Number of BTB lookups (Count)
system.cpu.branchPred.btb.lookups::Return        16552      3.23%      3.63% # Number of BTB lookups (Count)
system.cpu.branchPred.btb.lookups::CallDirect        21785      4.25%      7.88% # Number of BTB lookups (Count)
system.cpu.branchPred.btb.lookups::CallIndirect         1458      0.28%      8.16% # Number of BTB lookups (Count)
system.cpu.branchPred.btb.lookups::DirectCond       436697     85.16%     93.32% # Number of BTB lookups (Count)
system.cpu.branchPred.btb.lookups::DirectUncond        22508      4.39%     97.71% # Number of BTB lookups (Count)
system.cpu.branchPred.btb.lookups::IndirectCond            0      0.00%     97.71% # Number of BTB lookups (Count)
system.cpu.branchPred.btb.lookups::IndirectUncond        11731      2.29%    100.00% # Number of BTB lookups (Count)
system.cpu.branchPred.btb.lookups::total       512796                       # Number of BTB lookups (Count)
system.cpu.branchPred.btb.misses::NoBranch          400      0.24%      0.24% # Number of BTB misses (Count)
system.cpu.branchPred.btb.misses::Return        16552     10.12%     10.36% # Number of BTB misses (Count)
system.cpu.branchPred.btb.misses::CallDirect         1300      0.79%     11.16% # Number of BTB misses (Count)
system.cpu.branchPred.btb.misses::CallIndirect         1458      0.89%     12.05% # Number of BTB misses (Count)
system.cpu.branchPred.btb.misses::DirectCond       131115     80.15%     92.20% # Number of BTB misses (Count)
system.cpu.branchPred.btb.misses::DirectUncond         1023      0.63%     92.83% # Number of BTB misses (Count)
system.cpu.branchPred.btb.misses::IndirectCond            0      0.00%     92.83% # Number of BTB misses (Count)
system.cpu.branchPred.btb.misses::IndirectUncond        11731      7.17%    100.00% # Number of BTB misses (Count)
system.cpu.branchPred.btb.misses::total        163579                       # Number of BTB misses (Count)
system.cpu.branchPred.btb.updates::NoBranch            0      0.00%      0.00% # Number of BTB updates (Count)
system.cpu.branchPred.btb.updates::Return            0      0.00%      0.00% # Number of BTB updates (Count)
system.cpu.branchPred.btb.updates::CallDirect          828     10.01%     10.01% # Number of BTB updates (Count)
system.cpu.branchPred.btb.updates::CallIndirect            0      0.00%     10.01% # Number of BTB updates (Count)
system.cpu.branchPred.btb.updates::DirectCond         6782     81.96%     91.96% # Number of BTB updates (Count)
system.cpu.branchPred.btb.updates::DirectUncond          665      8.04%    100.00% # Number of BTB updates (Count)
system.cpu.branchPred.btb.updates::IndirectCond            0      0.00%    100.00% # Number of BTB updates (Count)
system.cpu.branchPred.btb.updates::IndirectUncond            0      0.00%    100.00% # Number of BTB updates (Count)
system.cpu.branchPred.btb.updates::total         8275                       # Number of BTB updates (Count)
system.cpu.branchPred.btb.mispredict::NoBranch            0      0.00%      0.00% # Number of BTB mispredictions. No target found or target wrong. (Count)
system.cpu.branchPred.btb.mispredict::Return            0      0.00%      0.00% # Number of BTB mispredictions. No target found or target wrong. (Count)
system.cpu.branchPred.btb.mispredict::CallDirect          828     10.01%     10.01% # Number of BTB mispredictions. No target found or target wrong. (Count)
system.cpu.branchPred.btb.mispredict::CallIndirect            0      0.00%     10.01% # Number of BTB mispredictions. No target found or target wrong. (Count)
system.cpu.branchPred.btb.mispredict::DirectCond         6782     81.96%     91.96% # Number of BTB mispredictions. No target found or target wrong. (Count)
system.cpu.branchPred.btb.mispredict::DirectUncond          665      8.04%    100.00% # Number of BTB mispredictions. No target found or target wrong. (Count)
system.cpu.branchPred.btb.mispredict::IndirectCond            0      0.00%    100.00% # Number of BTB mispredictions. No target found or target wrong. (Count)
system.cpu.branchPred.btb.mispredict::IndirectUncond            0      0.00%    100.00% # Number of BTB mispredictions. No target found or target wrong. (Count)
system.cpu.branchPred.btb.mispredict::total         8275                       # Number of BTB mispredictions. No target found or target wrong. (Count)
system.cpu.branchPred.btb.power_state.pwrStateResidencyTicks::UNDEFINED  19216666238                       # Cumulative time (in ticks) in various power states (Tick)
system.cpu.branchPred.indirectBranchPred.lookups        13189                       # Number of lookups (Count)
system.cpu.branchPred.indirectBranchPred.hits         5428                       # Number of hits of a tag (Count)
system.cpu.branchPred.indirectBranchPred.misses         7761                       # Number of misses (Count)
system.cpu.branchPred.indirectBranchPred.targetRecords         1518                       # Number of targets that where recorded/installed in the cache (Count)
system.cpu.branchPred.indirectBranchPred.indirectRecords        14707                       # Number of indirect branches/calls recorded in the indirect hist (Count)
system.cpu.branchPred.indirectBranchPred.speculativeOverflows            1                       # Number of times more than the allowed capacity for speculative branches/calls where in flight and destroy the path history (Count)
system.cpu.branchPred.ras.pushes                27148                       # Number of times a PC was pushed onto the RAS (Count)
system.cpu.branchPred.ras.pops                  27143                       # Number of times a PC was poped from the RAS (Count)
system.cpu.branchPred.ras.squashes              14496                       # Number of times the stack operation was squashed due to wrong speculation. (Count)
system.cpu.branchPred.ras.used                  12645                       # Number of times the RAS is the provider (Count)
system.cpu.branchPred.ras.correct               12645                       # Number of times the RAS is the provider and the prediction is correct (Count)
system.cpu.branchPred.ras.incorrect                 0                       # Number of times the RAS is the provider and the prediction is wrong (Count)
system.cpu.commit.commitSquashedInsts          869032                       # The number of squashed insts skipped by commit (Count)
system.cpu.commit.commitNonSpecStalls            2479                       # The number of times commit has been forced to stall to communicate backwards (Count)
system.cpu.commit.branchMispredicts             16166                       # The number of times a branch was mispredicted (Count)
system.cpu.commit.numCommittedDist::samples      1310975                       # Number of insts commited each cycle (Count)
system.cpu.commit.numCommittedDist::mean     3.081425                       # Number of insts commited each cycle (Count)
system.cpu.commit.numCommittedDist::stdev     3.193947                       # Number of insts commited each cycle (Count)
system.cpu.commit.numCommittedDist::underflows            0      0.00%      0.00% # Number of insts commited each cycle (Count)
system.cpu.commit.numCommittedDist::0          385762     29.43%     29.43% # Number of insts commited each cycle (Count)
system.cpu.commit.numCommittedDist::1          266289     20.31%     49.74% # Number of insts commited each cycle (Count)
system.cpu.commit.numCommittedDist::2           84044      6.41%     56.15% # Number of insts commited each cycle (Count)
system.cpu.commit.numCommittedDist::3          145885     11.13%     67.28% # Number of insts commited each cycle (Count)
system.cpu.commit.numCommittedDist::4           26640      2.03%     69.31% # Number of insts commited each cycle (Count)
system.cpu.commit.numCommittedDist::5           12632      0.96%     70.27% # Number of insts commited each cycle (Count)
system.cpu.commit.numCommittedDist::6            9907      0.76%     71.03% # Number of insts commited each cycle (Count)
system.cpu.commit.numCommittedDist::7          100051      7.63%     78.66% # Number of insts commited each cycle (Count)
system.cpu.commit.numCommittedDist::8          279765     21.34%    100.00% # Number of insts commited each cycle (Count)
system.cpu.commit.numCommittedDist::overflows            0      0.00%    100.00% # Number of insts commited each cycle (Count)
system.cpu.commit.numCommittedDist::min_value            0                       # Number of insts commited each cycle (Count)
system.cpu.commit.numCommittedDist::max_value            8                       # Number of insts commited each cycle (Count)
system.cpu.commit.numCommittedDist::total      1310975                       # Number of insts commited each cycle (Count)
system.cpu.commit.amos                              0                       # Number of atomic instructions committed (Count)
system.cpu.commit.membars                        1008                       # Number of memory barriers committed (Count)
system.cpu.commit.functionCalls                 12652                       # Number of function calls committed. (Count)
system.cpu.commit.committedInstType_0::No_OpClass        16059      0.40%      0.40% # Class of committed instruction (Count)
system.cpu.commit.committedInstType_0::IntAlu      3150068     77.98%     78.38% # Class of committed instruction (Count)
system.cpu.commit.committedInstType_0::IntMult           91      0.00%     78.38% # Class of committed instruction (Count)
system.cpu.commit.committedInstType_0::IntDiv        39362      0.97%     79.35% # Class of committed instruction (Count)
system.cpu.commit.committedInstType_0::FloatAdd         7302      0.18%     79.53% # Class of committed instruction (Count)
system.cpu.commit.committedInstType_0::FloatCmp            0      0.00%     79.53% # Class of committed instruction (Count)
system.cpu.commit.committedInstType_0::FloatCvt         1712      0.04%     79.58% # Class of committed instruction (Count)
system.cpu.commit.committedInstType_0::FloatMult            0      0.00%     79.58% # Class of committed instruction (Count)
system.cpu.commit.committedInstType_0::FloatMultAcc            0      0.00%     79.58% # Class of committed instruction (Count)
system.cpu.commit.committedInstType_0::FloatDiv            0      0.00%     79.58% # Class of committed instruction (Count)
system.cpu.commit.committedInstType_0::FloatMisc            0      0.00%     79.58% # Class of committed instruction (Count)
system.cpu.commit.committedInstType_0::FloatSqrt            0      0.00%     79.58% # Class of committed instruction (Count)
system.cpu.commit.committedInstType_0::SimdAdd         6810      0.17%     79.74% # Class of committed instruction (Count)
system.cpu.commit.committedInstType_0::SimdAddAcc            0      0.00%     79.74% # Class of committed instruction (Count)
system.cpu.commit.committedInstType_0::SimdAlu        13095      0.32%     80.07% # Class of committed instruction (Count)
system.cpu.commit.committedInstType_0::SimdCmp            6      0.00%     80.07% # Class of committed instruction (Count)
system.cpu.commit.committedInstType_0::SimdCvt        13632      0.34%     80.41% # Class of committed instruction (Count)
system.cpu.commit.committedInstType_0::SimdMisc        14046      0.35%     80.75% # Class of committed instruction (Count)
system.cpu.commit.committedInstType_0::SimdMult            0      0.00%     80.75% # Class of committed instruction (Count)
system.cpu.commit.committedInstType_0::SimdMultAcc            0      0.00%     80.75% # Class of committed instruction (Count)
system.cpu.commit.committedInstType_0::SimdMatMultAcc            0      0.00%     80.75% # Class of committed instruction (Count)
system.cpu.commit.committedInstType_0::SimdShift         1562      0.04%     80.79% # Class of committed instruction (Count)
system.cpu.commit.committedInstType_0::SimdShiftAcc            0      0.00%     80.79% # Class of committed instruction (Count)
system.cpu.commit.committedInstType_0::SimdDiv            0      0.00%     80.79% # Class of committed instruction (Count)
system.cpu.commit.committedInstType_0::SimdSqrt            0      0.00%     80.79% # Class of committed instruction (Count)
system.cpu.commit.committedInstType_0::SimdFloatAdd            1      0.00%     80.79% # Class of committed instruction (Count)
system.cpu.commit.committedInstType_0::SimdFloatAlu            0      0.00%     80.79% # Class of committed instruction (Count)
system.cpu.commit.committedInstType_0::SimdFloatCmp            0      0.00%     80.79% # Class of committed instruction (Count)
system.cpu.commit.committedInstType_0::SimdFloatCvt            2      0.00%     80.79% # Class of committed instruction (Count)
system.cpu.commit.committedInstType_0::SimdFloatDiv            1      0.00%     80.79% # Class of committed instruction (Count)
system.cpu.commit.committedInstType_0::SimdFloatMisc            0      0.00%     80.79% # Class of committed instruction (Count)
system.cpu.commit.committedInstType_0::SimdFloatMult            0      0.00%     80.79% # Class of committed instruction (Count)
system.cpu.commit.committedInstType_0::SimdFloatMultAcc            0      0.00%     80.79% # Class of committed instruction (Count)
system.cpu.commit.committedInstType_0::SimdFloatMatMultAcc            0      0.00%     80.79% # Class of committed instruction (Count)
system.cpu.commit.committedInstType_0::SimdFloatSqrt            0      0.00%     80.79% # Class of committed instruction (Count)
system.cpu.commit.committedInstType_0::SimdReduceAdd            0      0.00%     80.79% # Class of committed instruction (Count)
system.cpu.commit.committedInstType_0::SimdReduceAlu            0      0.00%     80.79% # Class of committed instruction (Count)
system.cpu.commit.committedInstType_0::SimdReduceCmp            0      0.00%     80.79% # Class of committed instruction (Count)
system.cpu.commit.committedInstType_0::SimdFloatReduceAdd            0      0.00%     80.79% # Class of committed instruction (Count)
system.cpu.commit.committedInstType_0::SimdFloatReduceCmp            0      0.00%     80.79% # Class of committed instruction (Count)
system.cpu.commit.committedInstType_0::SimdAes            0      0.00%     80.79% # Class of committed instruction (Count)
system.cpu.commit.committedInstType_0::SimdAesMix            0      0.00%     80.79% # Class of committed instruction (Count)
system.cpu.commit.committedInstType_0::SimdSha1Hash            0      0.00%     80.79% # Class of committed instruction (Count)
system.cpu.commit.committedInstType_0::SimdSha1Hash2            0      0.00%     80.79% # Class of committed instruction (Count)
system.cpu.commit.committedInstType_0::SimdSha256Hash            0      0.00%     80.79% # Class of committed instruction (Count)
system.cpu.commit.committedInstType_0::SimdSha256Hash2            0      0.00%     80.79% # Class of committed instruction (Count)
system.cpu.commit.committedInstType_0::SimdShaSigma2            0      0.00%     80.79% # Class of committed instruction (Count)
system.cpu.commit.committedInstType_0::SimdShaSigma3            0      0.00%     80.79% # Class of committed instruction (Count)
system.cpu.commit.committedInstType_0::SimdPredAlu            0      0.00%     80.79% # Class of committed instruction (Count)
system.cpu.commit.committedInstType_0::Matrix            0      0.00%     80.79% # Class of committed instruction (Count)
system.cpu.commit.committedInstType_0::MatrixMov            0      0.00%     80.79% # Class of committed instruction (Count)
system.cpu.commit.committedInstType_0::MatrixOP            0      0.00%     80.79% # Class of committed instruction (Count)
system.cpu.commit.committedInstType_0::MemRead       535290     13.25%     94.04% # Class of committed instruction (Count)
system.cpu.commit.committedInstType_0::MemWrite       206612      5.11%     99.16% # Class of committed instruction (Count)
system.cpu.commit.committedInstType_0::FloatMemRead        18274      0.45%     99.61% # Class of committed instruction (Count)
system.cpu.commit.committedInstType_0::FloatMemWrite        15746      0.39%    100.00% # Class of committed instruction (Count)
system.cpu.commit.committedInstType_0::IprAccess            0      0.00%    100.00% # Class of committed instruction (Count)
system.cpu.commit.committedInstType_0::InstPrefetch            0      0.00%    100.00% # Class of committed instruction (Count)
system.cpu.commit.committedInstType_0::SimdUnitStrideLoad            0      0.00%    100.00% # Class of committed instruction (Count)
system.cpu.commit.committedInstType_0::SimdUnitStrideStore            0      0.00%    100.00% # Class of committed instruction (Count)
system.cpu.commit.committedInstType_0::SimdUnitStrideMaskLoad            0      0.00%    100.00% # Class of committed instruction (Count)
system.cpu.commit.committedInstType_0::SimdUnitStrideMaskStore            0      0.00%    100.00% # Class of committed instruction (Count)
system.cpu.commit.committedInstType_0::SimdStridedLoad            0      0.00%    100.00% # Class of committed instruction (Count)
system.cpu.commit.committedInstType_0::SimdStridedStore            0      0.00%    100.00% # Class of committed instruction (Count)
system.cpu.commit.committedInstType_0::SimdIndexedLoad            0      0.00%    100.00% # Class of committed instruction (Count)
system.cpu.commit.committedInstType_0::SimdIndexedStore            0      0.00%    100.00% # Class of committed instruction (Count)
system.cpu.commit.committedInstType_0::SimdWholeRegisterLoad            0      0.00%    100.00% # Class of committed instruction (Count)
system.cpu.commit.committedInstType_0::SimdWholeRegisterStore            0      0.00%    100.00% # Class of committed instruction (Count)
system.cpu.commit.committedInstType_0::SimdUnitStrideFaultOnlyFirstLoad            0      0.00%    100.00% # Class of committed instruction (Count)
system.cpu.commit.committedInstType_0::SimdUnitStrideSegmentedLoad            0      0.00%    100.00% # Class of committed instruction (Count)
system.cpu.commit.committedInstType_0::SimdUnitStrideSegmentedStore            0      0.00%    100.00% # Class of committed instruction (Count)
system.cpu.commit.committedInstType_0::SimdExt            0      0.00%    100.00% # Class of committed instruction (Count)
system.cpu.commit.committedInstType_0::SimdFloatExt            0      0.00%    100.00% # Class of committed instruction (Count)
system.cpu.commit.committedInstType_0::SimdConfig            0      0.00%    100.00% # Class of committed instruction (Count)
system.cpu.commit.committedInstType_0::total      4039671                       # Class of committed instruction (Count)
system.cpu.commit.commitEligibleSamples        279765                       # number cycles where commit BW limit reached (Cycle)
system.cpu.commitStats0.numInsts              2317878                       # Number of instructions committed (thread level) (Count)
system.cpu.commitStats0.numOps                4039671                       # Number of ops (including micro ops) committed (thread level) (Count)
system.cpu.commitStats0.numInstsNotNOP        2317878                       # Number of instructions committed excluding NOPs or prefetches (Count)
system.cpu.commitStats0.numOpsNotNOP          4039671                       # Number of Ops (including micro ops) Simulated (Count)
system.cpu.commitStats0.cpi                  0.621813                       # CPI: cycles per instruction (thread level) ((Cycle/Count))
system.cpu.commitStats0.ipc                  1.608200                       # IPC: instructions per cycle (thread level) ((Count/Cycle))
system.cpu.commitStats0.numMemRefs             775922                       # Number of memory references committed (Count)
system.cpu.commitStats0.numFpInsts              96469                       # Number of float instructions (Count)
system.cpu.commitStats0.numIntInsts           3963412                       # Number of integer instructions (Count)
system.cpu.commitStats0.numLoadInsts           553564                       # Number of load instructions (Count)
system.cpu.commitStats0.numStoreInsts          222358                       # Number of store instructions (Count)
system.cpu.commitStats0.numVecInsts                 0                       # Number of vector instructions (Count)
system.cpu.commitStats0.committedInstType::No_OpClass        16059      0.40%      0.40% # Class of committed instruction. (Count)
system.cpu.commitStats0.committedInstType::IntAlu      3150068     77.98%     78.38% # Class of committed instruction. (Count)
system.cpu.commitStats0.committedInstType::IntMult           91      0.00%     78.38% # Class of committed instruction. (Count)
system.cpu.commitStats0.committedInstType::IntDiv        39362      0.97%     79.35% # Class of committed instruction. (Count)
system.cpu.commitStats0.committedInstType::FloatAdd         7302      0.18%     79.53% # Class of committed instruction. (Count)
system.cpu.commitStats0.committedInstType::FloatCmp            0      0.00%     79.53% # Class of committed instruction. (Count)
system.cpu.commitStats0.committedInstType::FloatCvt         1712      0.04%     79.58% # Class of committed instruction. (Count)
system.cpu.commitStats0.committedInstType::FloatMult            0      0.00%     79.58% # Class of committed instruction. (Count)
system.cpu.commitStats0.committedInstType::FloatMultAcc            0      0.00%     79.58% # Class of committed instruction. (Count)
system.cpu.commitStats0.committedInstType::FloatDiv            0      0.00%     79.58% # Class of committed instruction. (Count)
system.cpu.commitStats0.committedInstType::FloatMisc            0      0.00%     79.58% # Class of committed instruction. (Count)
system.cpu.commitStats0.committedInstType::FloatSqrt            0      0.00%     79.58% # Class of committed instruction. (Count)
system.cpu.commitStats0.committedInstType::SimdAdd         6810      0.17%     79.74% # Class of committed instruction. (Count)
system.cpu.commitStats0.committedInstType::SimdAddAcc            0      0.00%     79.74% # Class of committed instruction. (Count)
system.cpu.commitStats0.committedInstType::SimdAlu        13095      0.32%     80.07% # Class of committed instruction. (Count)
system.cpu.commitStats0.committedInstType::SimdCmp            6      0.00%     80.07% # Class of committed instruction. (Count)
system.cpu.commitStats0.committedInstType::SimdCvt        13632      0.34%     80.41% # Class of committed instruction. (Count)
system.cpu.commitStats0.committedInstType::SimdMisc        14046      0.35%     80.75% # Class of committed instruction. (Count)
system.cpu.commitStats0.committedInstType::SimdMult            0      0.00%     80.75% # Class of committed instruction. (Count)
system.cpu.commitStats0.committedInstType::SimdMultAcc            0      0.00%     80.75% # Class of committed instruction. (Count)
system.cpu.commitStats0.committedInstType::SimdMatMultAcc            0      0.00%     80.75% # Class of committed instruction. (Count)
system.cpu.commitStats0.committedInstType::SimdShift         1562      0.04%     80.79% # Class of committed instruction. (Count)
system.cpu.commitStats0.committedInstType::SimdShiftAcc            0      0.00%     80.79% # Class of committed instruction. (Count)
system.cpu.commitStats0.committedInstType::SimdDiv            0      0.00%     80.79% # Class of committed instruction. (Count)
system.cpu.commitStats0.committedInstType::SimdSqrt            0      0.00%     80.79% # Class of committed instruction. (Count)
system.cpu.commitStats0.committedInstType::SimdFloatAdd            1      0.00%     80.79% # Class of committed instruction. (Count)
system.cpu.commitStats0.committedInstType::SimdFloatAlu            0      0.00%     80.79% # Class of committed instruction. (Count)
system.cpu.commitStats0.committedInstType::SimdFloatCmp            0      0.00%     80.79% # Class of committed instruction. (Count)
system.cpu.commitStats0.committedInstType::SimdFloatCvt            2      0.00%     80.79% # Class of committed instruction. (Count)
system.cpu.commitStats0.committedInstType::SimdFloatDiv            1      0.00%     80.79% # Class of committed instruction. (Count)
system.cpu.commitStats0.committedInstType::SimdFloatMisc            0      0.00%     80.79% # Class of committed instruction. (Count)
system.cpu.commitStats0.committedInstType::SimdFloatMult            0      0.00%     80.79% # Class of committed instruction. (Count)
system.cpu.commitStats0.committedInstType::SimdFloatMultAcc            0      0.00%     80.79% # Class of committed instruction. (Count)
system.cpu.commitStats0.committedInstType::SimdFloatMatMultAcc            0      0.00%     80.79% # Class of committed instruction. (Count)
system.cpu.commitStats0.committedInstType::SimdFloatSqrt            0      0.00%     80.79% # Class of committed instruction. (Count)
system.cpu.commitStats0.committedInstType::SimdReduceAdd            0      0.00%     80.79% # Class of committed instruction. (Count)
system.cpu.commitStats0.committedInstType::SimdReduceAlu            0      0.00%     80.79% # Class of committed instruction. (Count)
system.cpu.commitStats0.committedInstType::SimdReduceCmp            0      0.00%     80.79% # Class of committed instruction. (Count)
system.cpu.commitStats0.committedInstType::SimdFloatReduceAdd            0      0.00%     80.79% # Class of committed instruction. (Count)
system.cpu.commitStats0.committedInstType::SimdFloatReduceCmp            0      0.00%     80.79% # Class of committed instruction. (Count)
system.cpu.commitStats0.committedInstType::SimdAes            0      0.00%     80.79% # Class of committed instruction. (Count)
system.cpu.commitStats0.committedInstType::SimdAesMix            0      0.00%     80.79% # Class of committed instruction. (Count)
system.cpu.commitStats0.committedInstType::SimdSha1Hash            0      0.00%     80.79% # Class of committed instruction. (Count)
system.cpu.commitStats0.committedInstType::SimdSha1Hash2            0      0.00%     80.79% # Class of committed instruction. (Count)
system.cpu.commitStats0.committedInstType::SimdSha256Hash            0      0.00%     80.79% # Class of committed instruction. (Count)
system.cpu.commitStats0.committedInstType::SimdSha256Hash2            0      0.00%     80.79% # Class of committed instruction. (Count)
system.cpu.commitStats0.committedInstType::SimdShaSigma2            0      0.00%     80.79% # Class of committed instruction. (Count)
system.cpu.commitStats0.committedInstType::SimdShaSigma3            0      0.00%     80.79% # Class of committed instruction. (Count)
system.cpu.commitStats0.committedInstType::SimdPredAlu            0      0.00%     80.79% # Class of committed instruction. (Count)
system.cpu.commitStats0.committedInstType::Matrix            0      0.00%     80.79% # Class of committed instruction. (Count)
system.cpu.commitStats0.committedInstType::MatrixMov            0      0.00%     80.79% # Class of committed instruction. (Count)
system.cpu.commitStats0.committedInstType::MatrixOP            0      0.00%     80.79% # Class of committed instruction. (Count)
system.cpu.commitStats0.committedInstType::MemRead       535290     13.25%     94.04% # Class of committed instruction. (Count)
system.cpu.commitStats0.committedInstType::MemWrite       206612      5.11%     99.16% # Class of committed instruction. (Count)
system.cpu.commitStats0.committedInstType::FloatMemRead        18274      0.45%     99.61% # Class of committed instruction. (Count)
system.cpu.commitStats0.committedInstType::FloatMemWrite        15746      0.39%    100.00% # Class of committed instruction. (Count)
system.cpu.commitStats0.committedInstType::IprAccess            0      0.00%    100.00% # Class of committed instruction. (Count)
system.cpu.commitStats0.committedInstType::InstPrefetch            0      0.00%    100.00% # Class of committed instruction. (Count)
system.cpu.commitStats0.committedInstType::SimdUnitStrideLoad            0      0.00%    100.00% # Class of committed instruction. (Count)
system.cpu.commitStats0.committedInstType::SimdUnitStrideStore            0      0.00%    100.00% # Class of committed instruction. (Count)
system.cpu.commitStats0.committedInstType::SimdUnitStrideMaskLoad            0      0.00%    100.00% # Class of committed instruction. (Count)
system.cpu.commitStats0.committedInstType::SimdUnitStrideMaskStore            0      0.00%    100.00% # Class of committed instruction. (Count)
system.cpu.commitStats0.committedInstType::SimdStridedLoad            0      0.00%    100.00% # Class of committed instruction. (Count)
system.cpu.commitStats0.committedInstType::SimdStridedStore            0      0.00%    100.00% # Class of committed instruction. (Count)
system.cpu.commitStats0.committedInstType::SimdIndexedLoad            0      0.00%    100.00% # Class of committed instruction. (Count)
system.cpu.commitStats0.committedInstType::SimdIndexedStore            0      0.00%    100.00% # Class of committed instruction. (Count)
system.cpu.commitStats0.committedInstType::SimdWholeRegisterLoad            0      0.00%    100.00% # Class of committed instruction. (Count)
system.cpu.commitStats0.committedInstType::SimdWholeRegisterStore            0      0.00%    100.00% # Class of committed instruction. (Count)
system.cpu.commitStats0.committedInstType::SimdUnitStrideFaultOnlyFirstLoad            0      0.00%    100.00% # Class of committed instruction. (Count)
system.cpu.commitStats0.committedInstType::SimdUnitStrideSegmentedLoad            0      0.00%    100.00% # Class of committed instruction. (Count)
system.cpu.commitStats0.committedInstType::SimdUnitStrideSegmentedStore            0      0.00%    100.00% # Class of committed instruction. (Count)
system.cpu.commitStats0.committedInstType::SimdExt            0      0.00%    100.00% # Class of committed instruction. (Count)
system.cpu.commitStats0.committedInstType::SimdFloatExt            0      0.00%    100.00% # Class of committed instruction. (Count)
system.cpu.commitStats0.committedInstType::SimdConfig            0      0.00%    100.00% # Class of committed instruction. (Count)
system.cpu.commitStats0.committedInstType::total      4039671                       # Class of committed instruction. (Count)
system.cpu.commitStats0.committedControl::IsControl       376375                       # Class of control type instructions committed (Count)
system.cpu.commitStats0.committedControl::IsDirectControl       357506                       # Class of control type instructions committed (Count)
system.cpu.commitStats0.committedControl::IsIndirectControl        18636                       # Class of control type instructions committed (Count)
system.cpu.commitStats0.committedControl::IsCondControl       330481                       # Class of control type instructions committed (Count)
system.cpu.commitStats0.committedControl::IsUncondControl        45661                       # Class of control type instructions committed (Count)
system.cpu.commitStats0.committedControl::IsCall        12652                       # Class of control type instructions committed (Count)
system.cpu.commitStats0.committedControl::IsReturn        12645                       # Class of control type instructions committed (Count)
system.cpu.decode.idleCycles                   249117                       # Number of cycles decode is idle (Cycle)
system.cpu.decode.blockedCycles                477023                       # Number of cycles decode is blocked (Cycle)
system.cpu.decode.runCycles                    485067                       # Number of cycles decode is running (Cycle)
system.cpu.decode.unblockCycles                210116                       # Number of cycles decode is unblocking (Cycle)
system.cpu.decode.squashCycles                  16938                       # Number of cycles decode is squashing (Cycle)
system.cpu.decode.branchResolved               245438                       # Number of times decode resolved a branch (Count)
system.cpu.decode.branchMispred                  1714                       # Number of times decode detected a branch misprediction (Count)
system.cpu.decode.decodedInsts                5144137                       # Number of instructions handled by decode (Count)
system.cpu.decode.squashedInsts                  8808                       # Number of squashed instructions handled by decode (Count)
system.cpu.executeStats0.numInsts             4604690                       # Number of executed instructions (Count)
system.cpu.executeStats0.numNop                     0                       # Number of nop insts executed (Count)
system.cpu.executeStats0.numBranches           412459                       # Number of branches executed (Count)
system.cpu.executeStats0.numLoadInsts          634629                       # Number of load instructions executed (Count)
system.cpu.executeStats0.numStoreInsts         268978                       # Number of stores executed (Count)
system.cpu.executeStats0.instRate            3.194846                       # Inst execution rate ((Count/Cycle))
system.cpu.executeStats0.numCCRegReads        2217633                       # Number of times the CC registers were read (Count)
system.cpu.executeStats0.numCCRegWrites       2066690                       # Number of times the CC registers were written (Count)
system.cpu.executeStats0.numFpRegReads         155786                       # Number of times the floating registers were read (Count)
system.cpu.executeStats0.numFpRegWrites         88274                       # Number of times the floating registers were written (Count)
system.cpu.executeStats0.numIntRegReads       5720072                       # Number of times the integer registers were read (Count)
system.cpu.executeStats0.numIntRegWrites      3549540                       # Number of times the integer registers were written (Count)
system.cpu.executeStats0.numMemRefs            903607                       # Number of memory refs (Count)
system.cpu.executeStats0.numMiscRegReads      1745843                       # Number of times the Misc registers were read (Count)
system.cpu.executeStats0.numMiscRegWrites          963                       # Number of times the Misc registers were written (Count)
system.cpu.executeStats0.numVecAluAccesses            0                       # Number of vector alu accesses (Count)
system.cpu.executeStats0.numDiscardedOps            0                       # Number of ops (including micro ops) which were discarded before commit (Count)
system.cpu.fetch.predictedBranches             282804                       # Number of branches that fetch has predicted taken (Count)
system.cpu.fetch.cycles                       1258082                       # Number of cycles fetch has run and was not squashing or blocked (Cycle)
system.cpu.fetch.squashCycles                   37174                       # Number of cycles fetch has spent squashing (Cycle)
system.cpu.fetch.miscStallCycles                  298                       # Number of cycles fetch has spent waiting on interrupts, or bad addresses, or out of MSHRs (Cycle)
system.cpu.fetch.pendingTrapStallCycles          2753                       # Number of stall cycles due to pending traps (Cycle)
system.cpu.fetch.cacheLines                    259156                       # Number of cache lines fetched (Count)
[...]
system.mem_ctrl.dram.bwRead::total          163338217                       # Total read bandwidth from this memory ((Byte/Second))
system.mem_ctrl.dram.bwInstRead::cpu.inst     38699741                       # Instruction read bandwidth from this memory ((Byte/Second))
system.mem_ctrl.dram.bwInstRead::total       38699741                       # Instruction read bandwidth from this memory ((Byte/Second))
system.mem_ctrl.dram.bwWrite::writebacks     23373045                       # Write bandwidth from this memory ((Byte/Second))
system.mem_ctrl.dram.bwWrite::total          23373045                       # Write bandwidth from this memory ((Byte/Second))
system.mem_ctrl.dram.bwTotal::writebacks     23373045                       # Total bandwidth to/from this memory ((Byte/Second))
system.mem_ctrl.dram.bwTotal::cpu.inst       38699741                       # Total bandwidth to/from this memory ((Byte/Second))
system.mem_ctrl.dram.bwTotal::cpu.data      124638476                       # Total bandwidth to/from this memory ((Byte/Second))
system.mem_ctrl.dram.bwTotal::total         186711262                       # Total bandwidth to/from this memory ((Byte/Second))
system.mem_ctrl.dram.readBursts                 46543                       # Number of DRAM read bursts (Count)
system.mem_ctrl.dram.writeBursts                 5448                       # Number of DRAM write bursts (Count)
system.mem_ctrl.dram.perBankRdBursts::0          3666                       # Per bank write bursts (Count)
system.mem_ctrl.dram.perBankRdBursts::1          2839                       # Per bank write bursts (Count)
system.mem_ctrl.dram.perBankRdBursts::2          1553                       # Per bank write bursts (Count)
system.mem_ctrl.dram.perBankRdBursts::3          2997                       # Per bank write bursts (Count)
system.mem_ctrl.dram.perBankRdBursts::4          1967                       # Per bank write bursts (Count)
system.mem_ctrl.dram.perBankRdBursts::5          4482                       # Per bank write bursts (Count)
system.mem_ctrl.dram.perBankRdBursts::6          3242                       # Per bank write bursts (Count)
system.mem_ctrl.dram.perBankRdBursts::7          3933                       # Per bank write bursts (Count)
system.mem_ctrl.dram.perBankRdBursts::8          3130                       # Per bank write bursts (Count)
system.mem_ctrl.dram.perBankRdBursts::9          3335                       # Per bank write bursts (Count)
system.mem_ctrl.dram.perBankRdBursts::10         2035                       # Per bank write bursts (Count)
system.mem_ctrl.dram.perBankRdBursts::11         1295                       # Per bank write bursts (Count)
system.mem_ctrl.dram.perBankRdBursts::12         3186                       # Per bank write bursts (Count)
system.mem_ctrl.dram.perBankRdBursts::13         3510                       # Per bank write bursts (Count)
system.mem_ctrl.dram.perBankRdBursts::14         3753                       # Per bank write bursts (Count)
system.mem_ctrl.dram.perBankRdBursts::15         1620                       # Per bank write bursts (Count)
system.mem_ctrl.dram.perBankWrBursts::0           119                       # Per bank write bursts (Count)
system.mem_ctrl.dram.perBankWrBursts::1           183                       # Per bank write bursts (Count)
system.mem_ctrl.dram.perBankWrBursts::2           200                       # Per bank write bursts (Count)
system.mem_ctrl.dram.perBankWrBursts::3           200                       # Per bank write bursts (Count)
system.mem_ctrl.dram.perBankWrBursts::4           194                       # Per bank write bursts (Count)
system.mem_ctrl.dram.perBankWrBursts::5           448                       # Per bank write bursts (Count)
system.mem_ctrl.dram.perBankWrBursts::6           575                       # Per bank write bursts (Count)
system.mem_ctrl.dram.perBankWrBursts::7           346                       # Per bank write bursts (Count)
system.mem_ctrl.dram.perBankWrBursts::8           300                       # Per bank write bursts (Count)
system.mem_ctrl.dram.perBankWrBursts::9           462                       # Per bank write bursts (Count)
system.mem_ctrl.dram.perBankWrBursts::10          318                       # Per bank write bursts (Count)
system.mem_ctrl.dram.perBankWrBursts::11          229                       # Per bank write bursts (Count)
system.mem_ctrl.dram.perBankWrBursts::12          276                       # Per bank write bursts (Count)
system.mem_ctrl.dram.perBankWrBursts::13         1141                       # Per bank write bursts (Count)
system.mem_ctrl.dram.perBankWrBursts::14          211                       # Per bank write bursts (Count)
system.mem_ctrl.dram.perBankWrBursts::15          246                       # Per bank write bursts (Count)
system.mem_ctrl.dram.totQLat                679463883                       # Total ticks spent queuing (Tick)
system.mem_ctrl.dram.totBusLat              232715000                       # Total ticks spent in databus transfers (Tick)
system.mem_ctrl.dram.totMemAccLat          1552145133                       # Total ticks spent from burst creation until serviced by the DRAM (Tick)
system.mem_ctrl.dram.avgQLat                 14598.63                       # Average queueing delay per DRAM burst ((Tick/Count))
system.mem_ctrl.dram.avgBusLat                5000.00                       # Average bus latency per DRAM burst ((Tick/Count))
system.mem_ctrl.dram.avgMemAccLat            33348.63                       # Average memory access latency per DRAM burst ((Tick/Count))
system.mem_ctrl.dram.readRowHits                22160                       # Number of row buffer hits during reads (Count)
system.mem_ctrl.dram.writeRowHits                4719                       # Number of row buffer hits during writes (Count)
system.mem_ctrl.dram.readRowHitRate             47.61                       # Row buffer hit rate for reads (Ratio)
system.mem_ctrl.dram.writeRowHitRate            86.62                       # Row buffer hit rate for writes (Ratio)
system.mem_ctrl.dram.bytesPerActivate::samples        25112                       # Bytes accessed per row activation (Byte)
system.mem_ctrl.dram.bytesPerActivate::mean   132.503345                       # Bytes accessed per row activation (Byte)
system.mem_ctrl.dram.bytesPerActivate::gmean    97.647188                       # Bytes accessed per row activation (Byte)
system.mem_ctrl.dram.bytesPerActivate::stdev   156.685469                       # Bytes accessed per row activation (Byte)
system.mem_ctrl.dram.bytesPerActivate::0-127        15670     62.40%     62.40% # Bytes accessed per row activation (Byte)
system.mem_ctrl.dram.bytesPerActivate::128-255         6597     26.27%     88.67% # Bytes accessed per row activation (Byte)
system.mem_ctrl.dram.bytesPerActivate::256-383         1227      4.89%     93.56% # Bytes accessed per row activation (Byte)
system.mem_ctrl.dram.bytesPerActivate::384-511          535      2.13%     95.69% # Bytes accessed per row activation (Byte)
system.mem_ctrl.dram.bytesPerActivate::512-639          323      1.29%     96.97% # Bytes accessed per row activation (Byte)
system.mem_ctrl.dram.bytesPerActivate::640-767          234      0.93%     97.91% # Bytes accessed per row activation (Byte)
system.mem_ctrl.dram.bytesPerActivate::768-895          151      0.60%     98.51% # Bytes accessed per row activation (Byte)
system.mem_ctrl.dram.bytesPerActivate::896-1023          107      0.43%     98.93% # Bytes accessed per row activation (Byte)
system.mem_ctrl.dram.bytesPerActivate::1024-1151          268      1.07%    100.00% # Bytes accessed per row activation (Byte)
system.mem_ctrl.dram.bytesPerActivate::total        25112                       # Bytes accessed per row activation (Byte)
system.mem_ctrl.dram.dramBytesRead            2978752                       # Total bytes read (Byte)
system.mem_ctrl.dram.dramBytesWritten          348672                       # Total bytes written (Byte)
system.mem_ctrl.dram.avgRdBW               155.008781                       # Average DRAM read bandwidth in MiBytes/s ((Byte/Second))
system.mem_ctrl.dram.avgWrBW                18.144250                       # Average DRAM write bandwidth in MiBytes/s ((Byte/Second))
system.mem_ctrl.dram.peakBW                  12800.00                       # Theoretical peak bandwidth in MiByte/s ((Byte/Second))
system.mem_ctrl.dram.busUtil                     1.35                       # Data bus utilization in percentage (Ratio)
system.mem_ctrl.dram.busUtilRead                 1.21                       # Data bus utilization in percentage for reads (Ratio)
system.mem_ctrl.dram.busUtilWrite                0.14                       # Data bus utilization in percentage for writes (Ratio)
system.mem_ctrl.dram.pageHitRate                51.70                       # Row buffer hit rate, read and write combined (Ratio)
system.mem_ctrl.dram.power_state.pwrStateResidencyTicks::UNDEFINED  19216666238                       # Cumulative time (in ticks) in various power states (Tick)
system.mem_ctrl.dram.rank0.actEnergy         96839820                       # Energy for activate commands per rank (pJ) (Joule)
system.mem_ctrl.dram.rank0.preEnergy         51471585                       # Energy for precharge commands per rank (pJ) (Joule)
system.mem_ctrl.dram.rank0.readEnergy       176208060                       # Energy for read commands per rank (pJ) (Joule)
system.mem_ctrl.dram.rank0.writeEnergy       11823300                       # Energy for write commands per rank (pJ) (Joule)
system.mem_ctrl.dram.rank0.refreshEnergy 1516931520.000000                       # Energy for refresh commands per rank (pJ) (Joule)
system.mem_ctrl.dram.rank0.actBackEnergy   7251307440                       # Energy for active background per rank (pJ) (Joule)
system.mem_ctrl.dram.rank0.preBackEnergy   1272858240                       # Energy for precharge background per rank (pJ) (Joule)
system.mem_ctrl.dram.rank0.actPowerDownEnergy            0                       # Energy for active power-down per rank (pJ) (Joule)
system.mem_ctrl.dram.rank0.prePowerDownEnergy            0                       # Energy for precharge power-down per rank (pJ) (Joule)
system.mem_ctrl.dram.rank0.selfRefreshEnergy            0                       # Energy for self refresh per rank (pJ) (Joule)
system.mem_ctrl.dram.rank0.totalEnergy    10377439965                       # Total energy per rank (pJ) (Joule)
system.mem_ctrl.dram.rank0.averagePower    540.022907                       # Core power per rank (mW) (Watt)
system.mem_ctrl.dram.rank0.totalIdleTime            0                       # Total Idle time Per DRAM Rank (Tick)
system.mem_ctrl.dram.rank0.pwrStateTime::IDLE   3242155077                       # Time in different power states (Tick)
system.mem_ctrl.dram.rank0.pwrStateTime::REF    641607488                       # Time in different power states (Tick)
system.mem_ctrl.dram.rank0.pwrStateTime::SREF            0                       # Time in different power states (Tick)
system.mem_ctrl.dram.rank0.pwrStateTime::PRE_PDN            0                       # Time in different power states (Tick)
system.mem_ctrl.dram.rank0.pwrStateTime::ACT  15332903673                       # Time in different power states (Tick)
system.mem_ctrl.dram.rank0.pwrStateTime::ACT_PDN            0                       # Time in different power states (Tick)
system.mem_ctrl.dram.rank1.actEnergy         82459860                       # Energy for activate commands per rank (pJ) (Joule)
system.mem_ctrl.dram.rank1.preEnergy         43828455                       # Energy for precharge commands per rank (pJ) (Joule)
system.mem_ctrl.dram.rank1.readEnergy       156108960                       # Energy for read commands per rank (pJ) (Joule)
system.mem_ctrl.dram.rank1.writeEnergy       16615260                       # Energy for write commands per rank (pJ) (Joule)
system.mem_ctrl.dram.rank1.refreshEnergy 1516931520.000000                       # Energy for refresh commands per rank (pJ) (Joule)
system.mem_ctrl.dram.rank1.actBackEnergy   7108623330                       # Energy for active background per rank (pJ) (Joule)
system.mem_ctrl.dram.rank1.preBackEnergy   1393013280                       # Energy for precharge background per rank (pJ) (Joule)
system.mem_ctrl.dram.rank1.actPowerDownEnergy            0                       # Energy for active power-down per rank (pJ) (Joule)
system.mem_ctrl.dram.rank1.prePowerDownEnergy            0                       # Energy for precharge power-down per rank (pJ) (Joule)
system.mem_ctrl.dram.rank1.selfRefreshEnergy            0                       # Energy for self refresh per rank (pJ) (Joule)
system.mem_ctrl.dram.rank1.totalEnergy    10317580665                       # Total energy per rank (pJ) (Joule)
system.mem_ctrl.dram.rank1.averagePower    536.907939                       # Core power per rank (mW) (Watt)
system.mem_ctrl.dram.rank1.totalIdleTime            0                       # Total Idle time Per DRAM Rank (Tick)
system.mem_ctrl.dram.rank1.pwrStateTime::IDLE   3556817396                       # Time in different power states (Tick)
system.mem_ctrl.dram.rank1.pwrStateTime::REF    641607488                       # Time in different power states (Tick)
system.mem_ctrl.dram.rank1.pwrStateTime::SREF            0                       # Time in different power states (Tick)
system.mem_ctrl.dram.rank1.pwrStateTime::PRE_PDN            0                       # Time in different power states (Tick)
system.mem_ctrl.dram.rank1.pwrStateTime::ACT  15018241354                       # Time in different power states (Tick)
system.mem_ctrl.dram.rank1.pwrStateTime::ACT_PDN            0                       # Time in different power states (Tick)
system.mem_ctrl.power_state.pwrStateResidencyTicks::UNDEFINED  19216666238                       # Cumulative time (in ticks) in various power states (Tick)
system.membus.transDist::ReadResp               43723                       # Transaction distribution (Count)
system.membus.transDist::WritebackDirty          7018                       # Transaction distribution (Count)
system.membus.transDist::CleanEvict             41898                       # Transaction distribution (Count)
system.membus.transDist::UpgradeReq                 3                       # Transaction distribution (Count)
system.membus.transDist::ReadExReq               5324                       # Transaction distribution (Count)
system.membus.transDist::ReadExResp              5324                       # Transaction distribution (Count)
system.membus.transDist::ReadSharedReq          43723                       # Transaction distribution (Count)
system.membus.pktCount_system.cpu.l1d.mem_side_port::system.mem_ctrl.port       112211                       # Packet count per connected requestor and responder (Count)
system.membus.pktCount_system.cpu.l1d.mem_side_port::total       112211                       # Packet count per connected requestor and responder (Count)
system.membus.pktCount_system.cpu.l1i.mem_side_port::system.mem_ctrl.port        34799                       # Packet count per connected requestor and responder (Count)
system.membus.pktCount_system.cpu.l1i.mem_side_port::total        34799                       # Packet count per connected requestor and responder (Count)
system.membus.pktCount::total                  147010                       # Packet count per connected requestor and responder (Count)
system.membus.pktSize_system.cpu.l1d.mem_side_port::system.mem_ctrl.port      2844288                       # Cumulative packet size per connected requestor and responder (Byte)
system.membus.pktSize_system.cpu.l1d.mem_side_port::total      2844288                       # Cumulative packet size per connected requestor and responder (Byte)
system.membus.pktSize_system.cpu.l1i.mem_side_port::system.mem_ctrl.port       743680                       # Cumulative packet size per connected requestor and responder (Byte)
system.membus.pktSize_system.cpu.l1i.mem_side_port::total       743680                       # Cumulative packet size per connected requestor and responder (Byte)
system.membus.pktSize::total                  3587968                       # Cumulative packet size per connected requestor and responder (Byte)
system.membus.snoops                                3                       # Total snoops (Count)
system.membus.snoopTraffic                        192                       # Total snoop traffic (Byte)
system.membus.snoopFanout::samples              49050                       # Request fanout histogram (Count)
system.membus.snoopFanout::mean              0.002202                       # Request fanout histogram (Count)
system.membus.snoopFanout::stdev             0.046873                       # Request fanout histogram (Count)
system.membus.snoopFanout::underflows               0      0.00%      0.00% # Request fanout histogram (Count)
system.membus.snoopFanout::0                    48942     99.78%     99.78% # Request fanout histogram (Count)
system.membus.snoopFanout::1                      108      0.22%    100.00% # Request fanout histogram (Count)
system.membus.snoopFanout::2                        0      0.00%    100.00% # Request fanout histogram (Count)
system.membus.snoopFanout::overflows                0      0.00%    100.00% # Request fanout histogram (Count)
system.membus.snoopFanout::min_value                0                       # Request fanout histogram (Count)
system.membus.snoopFanout::max_value                1                       # Request fanout histogram (Count)
system.membus.snoopFanout::total                49050                       # Request fanout histogram (Count)
system.membus.power_state.pwrStateResidencyTicks::UNDEFINED  19216666238                       # Cumulative time (in ticks) in various power states (Tick)
system.membus.reqLayer2.occupancy          1680464654                       # Layer occupancy (ticks) (Tick)
system.membus.reqLayer2.utilization               0.1                       # Layer utilization (Ratio)
system.membus.respLayer2.occupancy         2530747489                       # Layer occupancy (ticks) (Tick)
system.membus.respLayer2.utilization              0.1                       # Layer utilization (Ratio)
system.membus.respLayer3.occupancy          793911228                       # Layer occupancy (ticks) (Tick)
system.membus.respLayer3.utilization              0.0                       # Layer utilization (Ratio)
system.membus.snoop_filter.totRequests          97966                       # Total number of requests made to the snoop filter. (Count)
system.membus.snoop_filter.hitSingleRequests        48917                       # Number of requests hitting in the snoop filter with a single holder of the requested data. (Count)
system.membus.snoop_filter.hitMultiRequests          107                       # Number of requests hitting in the snoop filter with multiple (>1) holders of the requested data. (Count)
system.membus.snoop_filter.totSnoops                0                       # Total number of snoops made to the snoop filter. (Count)
system.membus.snoop_filter.hitSingleSnoops            0                       # Number of snoops hitting in the snoop filter with a single holder of the requested data. (Count)
system.membus.snoop_filter.hitMultiSnoops            0                       # Number of snoops hitting in the snoop filter with multiple (>1) holders of the requested data. (Count)
system.workload.inst.arm                            0                       # number of arm instructions executed (Count)
system.workload.inst.quiesce                        0                       # number of quiesce instructions executed (Count)

---------- End Simulation Statistics   ----------
