
---------- Begin Simulation Statistics ----------
simSeconds                                   2.021944                       # Number of seconds simulated (Second)
simTicks                                 2021944090134                       # Number of ticks simulated (Tick)
finalTick                                2021944090134                       # Number of ticks from beginning of simulation (restored from checkpoints and never reset) (Tick)
simFreq                                  1000000000000                       # The number of ticks per simulated second ((Tick/Second))
hostSeconds                                   1268.19                       # Real time elapsed on the host (Second)
hostTickRate                               1594360302                       # The number of ticks simulated per host second (ticks/s) ((Tick/Second))
hostMemory                                    8694012                       # Number of bytes of host memory used (Byte)
simInsts                                    265955911                       # Number of instructions simulated (Count)
simOps                                      441161777                       # Number of ops (including micro ops) simulated (Count)
hostInstRate                                   209714                       # Simulator instruction rate (inst/s) ((Count/Second))
hostOpRate                                     347869                       # Simulator op (including micro ops) rate (op/s) ((Count/Second))
system.clk_domain.clock                         13333                       # Clock period in ticks (Tick)
system.clk_domain.voltage_domain.voltage            1                       # Voltage in Volts (Volt)
system.cpu.numCycles                        151649599                       # Number of cpu cycles simulated (Cycle)
system.cpu.cpi                               0.570206                       # CPI: cycles per instruction (core level) ((Cycle/Count))
system.cpu.ipc                               1.753753                       # IPC: instructions per cycle (core level) ((Count/Cycle))
system.cpu.numWorkItemsStarted                      0                       # Number of work items this cpu started (Count)
system.cpu.numWorkItemsCompleted                    0                       # Number of work items this cpu completed (Count)
system.cpu.instsAdded                       559198650                       # Number of instructions added to the IQ (excludes non-spec) (Count)
system.cpu.nonSpecInstsAdded                     3797                       # Number of non-speculative instructions added to the IQ (Count)
system.cpu.instsIssued                      522552879                       # Number of instructions issued (Count)
system.cpu.squashedInstsIssued                 519969                       # Number of squashed instructions issued (Count)
system.cpu.squashedInstsExamined            118040649                       # Number of squashed instructions iterated over during squash; mainly for profiling (Count)
system.cpu.squashedOperandsExamined         212861978                       # Number of squashed operands that are examined and possibly removed from graph (Count)
system.cpu.squashedNonSpecRemoved                 294                       # Number of squashed non-spec instructions that were removed (Count)
system.cpu.numIssuedDist::samples           151508934                       # Number of insts issued each cycle (Count)
system.cpu.numIssuedDist::mean               3.448991                       # Number of insts issued each cycle (Count)
system.cpu.numIssuedDist::stdev              2.865090                       # Number of insts issued each cycle (Count)
system.cpu.numIssuedDist::underflows                0      0.00%      0.00% # Number of insts issued each cycle (Count)
system.cpu.numIssuedDist::0                  46956013     30.99%     30.99% # Number of insts issued each cycle (Count)
system.cpu.numIssuedDist::1                   6193859      4.09%     35.08% # Number of insts issued each cycle (Count)
system.cpu.numIssuedDist::2                   9332663      6.16%     41.24% # Number of insts issued each cycle (Count)
system.cpu.numIssuedDist::3                   9620326      6.35%     47.59% # Number of insts issued each cycle (Count)
system.cpu.numIssuedDist::4                  16194048     10.69%     58.28% # Number of insts issued each cycle (Count)
system.cpu.numIssuedDist::5                  16508824     10.90%     69.17% # Number of insts issued each cycle (Count)
system.cpu.numIssuedDist::6                  18369087     12.12%     81.30% # Number of insts issued each cycle (Count)
system.cpu.numIssuedDist::7                  15375030     10.15%     91.45% # Number of insts issued each cycle (Count)
system.cpu.numIssuedDist::8                  12959084      8.55%    100.00% # Number of insts issued each cycle (Count)
system.cpu.numIssuedDist::overflows                 0      0.00%    100.00% # Number of insts issued each cycle (Count)
system.cpu.numIssuedDist::min_value                 0                       # Number of insts issued each cycle (Count)
system.cpu.numIssuedDist::max_value                 8                       # Number of insts issued each cycle (Count)
system.cpu.numIssuedDist::total             151508934                       # Number of insts issued each cycle (Count)
system.cpu.statFuBusy::No_OpClass                   0      0.00%      0.00% # attempts to use FU when none available (Count)
system.cpu.statFuBusy::IntAlu                 8856786     95.98%     95.98% # attempts to use FU when none available (Count)
system.cpu.statFuBusy::IntMult                      0      0.00%     95.98% # attempts to use FU when none available (Count)
system.cpu.statFuBusy::IntDiv                       0      0.00%     95.98% # attempts to use FU when none available (Count)
system.cpu.statFuBusy::FloatAdd                     0      0.00%     95.98% # attempts to use FU when none available (Count)
system.cpu.statFuBusy::FloatCmp                     0      0.00%     95.98% # attempts to use FU when none available (Count)
system.cpu.statFuBusy::FloatCvt                     0      0.00%     95.98% # attempts to use FU when none available (Count)
system.cpu.statFuBusy::FloatMult                    0      0.00%     95.98% # attempts to use FU when none available (Count)
system.cpu.statFuBusy::FloatMultAcc                 0      0.00%     95.98% # attempts to use FU when none available (Count)
system.cpu.statFuBusy::FloatDiv                     0      0.00%     95.98% # attempts to use FU when none available (Count)
system.cpu.statFuBusy::FloatMisc                    0      0.00%     95.98% # attempts to use FU when none available (Count)
system.cpu.statFuBusy::FloatSqrt                    0      0.00%     95.98% # attempts to use FU when none available (Count)
system.cpu.statFuBusy::SimdAdd                      0      0.00%     95.98% # attempts to use FU when none available (Count)
system.cpu.statFuBusy::SimdAddAcc                   0      0.00%     95.98% # attempts to use FU when none available (Count)
system.cpu.statFuBusy::SimdAlu                  42609      0.46%     96.44% # attempts to use FU when none available (Count)
system.cpu.statFuBusy::SimdCmp                      0      0.00%     96.44% # attempts to use FU when none available (Count)
system.cpu.statFuBusy::SimdCvt                    216      0.00%     96.44% # attempts to use FU when none available (Count)
system.cpu.statFuBusy::SimdMisc                    15      0.00%     96.44% # attempts to use FU when none available (Count)
system.cpu.statFuBusy::SimdMult                     0      0.00%     96.44% # attempts to use FU when none available (Count)
system.cpu.statFuBusy::SimdMultAcc                  0      0.00%     96.44% # attempts to use FU when none available (Count)
system.cpu.statFuBusy::SimdMatMultAcc               0      0.00%     96.44% # attempts to use FU when none available (Count)
system.cpu.statFuBusy::SimdShift                   31      0.00%     96.44% # attempts to use FU when none available (Count)
system.cpu.statFuBusy::SimdShiftAcc                 0      0.00%     96.44% # attempts to use FU when none available (Count)
system.cpu.statFuBusy::SimdDiv                      0      0.00%     96.44% # attempts to use FU when none available (Count)
system.cpu.statFuBusy::SimdSqrt                     0      0.00%     96.44% # attempts to use FU when none available (Count)
system.cpu.statFuBusy::SimdFloatAdd                 0      0.00%     96.44% # attempts to use FU when none available (Count)
system.cpu.statFuBusy::SimdFloatAlu                 0      0.00%     96.44% # attempts to use FU when none available (Count)
system.cpu.statFuBusy::SimdFloatCmp                 0      0.00%     96.44% # attempts to use FU when none available (Count)
system.cpu.statFuBusy::SimdFloatCvt                 0      0.00%     96.44% # attempts to use FU when none available (Count)
system.cpu.statFuBusy::SimdFloatDiv                 0      0.00%     96.44% # attempts to use FU when none available (Count)
system.cpu.statFuBusy::SimdFloatMisc                0      0.00%     96.44% # attempts to use FU when none available (Count)
system.cpu.statFuBusy::SimdFloatMult                0      0.00%     96.44% # attempts to use FU when none available (Count)
system.cpu.statFuBusy::SimdFloatMultAcc             0      0.00%     96.44% # attempts to use FU when none available (Count)
system.cpu.statFuBusy::SimdFloatMatMultAcc            0      0.00%     96.44% # attempts to use FU when none available (Count)
system.cpu.statFuBusy::SimdFloatSqrt                0      0.00%     96.44% # attempts to use FU when none available (Count)
system.cpu.statFuBusy::SimdReduceAdd                0      0.00%     96.44% # attempts to use FU when none available (Count)
system.cpu.statFuBusy::SimdReduceAlu                0      0.00%     96.44% # attempts to use FU when none available (Count)
system.cpu.statFuBusy::SimdReduceCmp                0      0.00%     96.44% # attempts to use FU when none available (Count)
system.cpu.statFuBusy::SimdFloatReduceAdd            0      0.00%     96.44% # attempts to use FU when none available (Count)
system.cpu.statFuBusy::SimdFloatReduceCmp            0      0.00%     96.44% # attempts to use FU when none available (Count)
system.cpu.statFuBusy::SimdAes                      0      0.00%     96.44% # attempts to use FU when none available (Count)
system.cpu.statFuBusy::SimdAesMix                   0      0.00%     96.44% # attempts to use FU when none available (Count)
system.cpu.statFuBusy::SimdSha1Hash                 0      0.00%     96.44% # attempts to use FU when none available (Count)
system.cpu.statFuBusy::SimdSha1Hash2                0      0.00%     96.44% # attempts to use FU when none available (Count)
system.cpu.statFuBusy::SimdSha256Hash               0      0.00%     96.44% # attempts to use FU when none available (Count)
system.cpu.statFuBusy::SimdSha256Hash2              0      0.00%     96.44% # attempts to use FU when none available (Count)
system.cpu.statFuBusy::SimdShaSigma2                0      0.00%     96.44% # attempts to use FU when none available (Count)
system.cpu.statFuBusy::SimdShaSigma3                0      0.00%     96.44% # attempts to use FU when none available (Count)
system.cpu.statFuBusy::SimdPredAlu                  0      0.00%     96.44% # attempts to use FU when none available (Count)
system.cpu.statFuBusy::Matrix                       0      0.00%     96.44% # attempts to use FU when none available (Count)
system.cpu.statFuBusy::MatrixMov                    0      0.00%     96.44% # attempts to use FU when none available (Count)
system.cpu.statFuBusy::MatrixOP                     0      0.00%     96.44% # attempts to use FU when none available (Count)
system.cpu.statFuBusy::MemRead                 186803      2.02%     98.46% # attempts to use FU when none available (Count)
system.cpu.statFuBusy::MemWrite                140704      1.52%     99.99% # attempts to use FU when none available (Count)
system.cpu.statFuBusy::FloatMemRead               562      0.01%    100.00% # attempts to use FU when none available (Count)
system.cpu.statFuBusy::FloatMemWrite              415      0.00%    100.00% # attempts to use FU when none available (Count)
system.cpu.statFuBusy::IprAccess                    0      0.00%    100.00% # attempts to use FU when none available (Count)
system.cpu.statFuBusy::InstPrefetch                 0      0.00%    100.00% # attempts to use FU when none available (Count)
system.cpu.statFuBusy::SimdUnitStrideLoad            0      0.00%    100.00% # attempts to use FU when none available (Count)
system.cpu.statFuBusy::SimdUnitStrideStore            0      0.00%    100.00% # attempts to use FU when none available (Count)
system.cpu.statFuBusy::SimdUnitStrideMaskLoad            0      0.00%    100.00% # attempts to use FU when none available (Count)
system.cpu.statFuBusy::SimdUnitStrideMaskStore            0      0.00%    100.00% # attempts to use FU when none available (Count)
system.cpu.statFuBusy::SimdStridedLoad              0      0.00%    100.00% # attempts to use FU when none available (Count)
system.cpu.statFuBusy::SimdStridedStore             0      0.00%    100.00% # attempts to use FU when none available (Count)
system.cpu.statFuBusy::SimdIndexedLoad              0      0.00%    100.00% # attempts to use FU when none available (Count)
system.cpu.statFuBusy::SimdIndexedStore             0      0.00%    100.00% # attempts to use FU when none available (Count)
system.cpu.statFuBusy::SimdWholeRegisterLoad            0      0.00%    100.00% # attempts to use FU when none available (Count)
system.cpu.statFuBusy::SimdWholeRegisterStore            0      0.00%    100.00% # attempts to use FU when none available (Count)
system.cpu.statFuBusy::SimdUnitStrideFaultOnlyFirstLoad            0      0.00%    100.00% # attempts to use FU when none available (Count)
system.cpu.statFuBusy::SimdUnitStrideSegmentedLoad            0      0.00%    100.00% # attempts to use FU when none available (Count)
system.cpu.statFuBusy::SimdUnitStrideSegmentedStore            0      0.00%    100.00% # attempts to use FU when none available (Count)
system.cpu.statFuBusy::SimdExt                      0      0.00%    100.00% # attempts to use FU when none available (Count)
system.cpu.statFuBusy::SimdFloatExt                 0      0.00%    100.00% # attempts to use FU when none available (Count)
system.cpu.statFuBusy::SimdConfig                   0      0.00%    100.00% # attempts to use FU when none available (Count)
system.cpu.statIssuedInstType_0::No_OpClass     10997985      2.10%      2.10% # Number of instructions issued per FU type, per thread (Count)
system.cpu.statIssuedInstType_0::IntAlu     409425318     78.35%     80.46% # Number of instructions issued per FU type, per thread (Count)
system.cpu.statIssuedInstType_0::IntMult       297275      0.06%     80.51% # Number of instructions issued per FU type, per thread (Count)
system.cpu.statIssuedInstType_0::IntDiv         43455      0.01%     80.52% # Number of instructions issued per FU type, per thread (Count)
system.cpu.statIssuedInstType_0::FloatAdd       263414      0.05%     80.57% # Number of instructions issued per FU type, per thread (Count)
system.cpu.statIssuedInstType_0::FloatCmp            0      0.00%     80.57% # Number of instructions issued per FU type, per thread (Count)
system.cpu.statIssuedInstType_0::FloatCvt         1356      0.00%     80.57% # Number of instructions issued per FU type, per thread (Count)
system.cpu.statIssuedInstType_0::FloatMult            0      0.00%     80.57% # Number of instructions issued per FU type, per thread (Count)
system.cpu.statIssuedInstType_0::FloatMultAcc            0      0.00%     80.57% # Number of instructions issued per FU type, per thread (Count)
system.cpu.statIssuedInstType_0::FloatDiv            0      0.00%     80.57% # Number of instructions issued per FU type, per thread (Count)
system.cpu.statIssuedInstType_0::FloatMisc            0      0.00%     80.57% # Number of instructions issued per FU type, per thread (Count)
system.cpu.statIssuedInstType_0::FloatSqrt            0      0.00%     80.57% # Number of instructions issued per FU type, per thread (Count)
system.cpu.statIssuedInstType_0::SimdAdd         7359      0.00%     80.57% # Number of instructions issued per FU type, per thread (Count)
system.cpu.statIssuedInstType_0::SimdAddAcc            0      0.00%     80.57% # Number of instructions issued per FU type, per thread (Count)
system.cpu.statIssuedInstType_0::SimdAlu       612551      0.12%     80.69% # Number of instructions issued per FU type, per thread (Count)
system.cpu.statIssuedInstType_0::SimdCmp            6      0.00%     80.69% # Number of instructions issued per FU type, per thread (Count)
system.cpu.statIssuedInstType_0::SimdCvt       101090      0.02%     80.71% # Number of instructions issued per FU type, per thread (Count)
system.cpu.statIssuedInstType_0::SimdMisc       142329      0.03%     80.74% # Number of instructions issued per FU type, per thread (Count)
system.cpu.statIssuedInstType_0::SimdMult            0      0.00%     80.74% # Number of instructions issued per FU type, per thread (Count)
system.cpu.statIssuedInstType_0::SimdMultAcc            0      0.00%     80.74% # Number of instructions issued per FU type, per thread (Count)
system.cpu.statIssuedInstType_0::SimdMatMultAcc            0      0.00%     80.74% # Number of instructions issued per FU type, per thread (Count)
system.cpu.statIssuedInstType_0::SimdShift         3911      0.00%     80.74% # Number of instructions issued per FU type, per thread (Count)
system.cpu.statIssuedInstType_0::SimdShiftAcc            0      0.00%     80.74% # Number of instructions issued per FU type, per thread (Count)
system.cpu.statIssuedInstType_0::SimdDiv            0      0.00%     80.74% # Number of instructions issued per FU type, per thread (Count)
system.cpu.statIssuedInstType_0::SimdSqrt            0      0.00%     80.74% # Number of instructions issued per FU type, per thread (Count)
system.cpu.statIssuedInstType_0::SimdFloatAdd        42501      0.01%     80.75% # Number of instructions issued per FU type, per thread (Count)
system.cpu.statIssuedInstType_0::SimdFloatAlu            0      0.00%     80.75% # Number of instructions issued per FU type, per thread (Count)
system.cpu.statIssuedInstType_0::SimdFloatCmp            0      0.00%     80.75% # Number of instructions issued per FU type, per thread (Count)
system.cpu.statIssuedInstType_0::SimdFloatCvt        85002      0.02%     80.76% # Number of instructions issued per FU type, per thread (Count)
system.cpu.statIssuedInstType_0::SimdFloatDiv        42501      0.01%     80.77% # Number of instructions issued per FU type, per thread (Count)
system.cpu.statIssuedInstType_0::SimdFloatMisc            0      0.00%     80.77% # Number of instructions issued per FU type, per thread (Count)
system.cpu.statIssuedInstType_0::SimdFloatMult            0      0.00%     80.77% # Number of instructions issued per FU type, per thread (Count)
system.cpu.statIssuedInstType_0::SimdFloatMultAcc            0      0.00%     80.77% # Number of instructions issued per FU type, per thread (Count)
system.cpu.statIssuedInstType_0::SimdFloatMatMultAcc            0      0.00%     80.77% # Number of instructions issued per FU type, per thread (Count)
system.cpu.statIssuedInstType_0::SimdFloatSqrt            0      0.00%     80.77% # Number of instructions issued per FU type, per thread (Count)
system.cpu.statIssuedInstType_0::SimdReduceAdd            0      0.00%     80.77% # Number of instructions issued per FU type, per thread (Count)
system.cpu.statIssuedInstType_0::SimdReduceAlu            0      0.00%     80.77% # Number of instructions issued per FU type, per thread (Count)
system.cpu.statIssuedInstType_0::SimdReduceCmp            0      0.00%     80.77% # Number of instructions issued per FU type, per thread (Count)
system.cpu.statIssuedInstType_0::SimdFloatReduceAdd            0      0.00%     80.77% # Number of instructions issued per FU type, per thread (Count)
system.cpu.statIssuedInstType_0::SimdFloatReduceCmp            0      0.00%     80.77% # Number of instructions issued per FU type, per thread (Count)
system.cpu.statIssuedInstType_0::SimdAes            0      0.00%     80.77% # Number of instructions issued per FU type, per thread (Count)
system.cpu.statIssuedInstType_0::SimdAesMix            0      0.00%     80.77% # Number of instructions issued per FU type, per thread (Count)
system.cpu.statIssuedInstType_0::SimdSha1Hash            0      0.00%     80.77% # Number of instructions issued per FU type, per thread (Count)
system.cpu.statIssuedInstType_0::SimdSha1Hash2            0      0.00%     80.77% # Number of instructions issued per FU type, per thread (Count)
system.cpu.statIssuedInstType_0::SimdSha256Hash            0      0.00%     80.77% # Number of instructions issued per FU type, per thread (Count)
system.cpu.statIssuedInstType_0::SimdSha256Hash2            0      0.00%     80.77% # Number of instructions issued per FU type, per thread (Count)
system.cpu.statIssuedInstType_0::SimdShaSigma2            0      0.00%     80.77% # Number of instructions issued per FU type, per thread (Count)
system.cpu.statIssuedInstType_0::SimdShaSigma3            0      0.00%     80.77% # Number of instructions issued per FU type, per thread (Count)
system.cpu.statIssuedInstType_0::SimdPredAlu            0      0.00%     80.77% # Number of instructions issued per FU type, per thread (Count)
system.cpu.statIssuedInstType_0::Matrix             0      0.00%     80.77% # Number of instructions issued per FU type, per thread (Count)
system.cpu.statIssuedInstType_0::MatrixMov            0      0.00%     80.77% # Number of instructions issued per FU type, per thread (Count)
system.cpu.statIssuedInstType_0::MatrixOP            0      0.00%     80.77% # Number of instructions issued per FU type, per thread (Count)
system.cpu.statIssuedInstType_0::MemRead     61936997     11.85%     92.62% # Number of instructions issued per FU type, per thread (Count)
system.cpu.statIssuedInstType_0::MemWrite     37914894      7.26%     99.88% # Number of instructions issued per FU type, per thread (Count)
system.cpu.statIssuedInstType_0::FloatMemRead       491406      0.09%     99.97% # Number of instructions issued per FU type, per thread (Count)
system.cpu.statIssuedInstType_0::FloatMemWrite       143529      0.03%    100.00% # Number of instructions issued per FU type, per thread (Count)
system.cpu.statIssuedInstType_0::IprAccess            0      0.00%    100.00% # Number of instructions issued per FU type, per thread (Count)
system.cpu.statIssuedInstType_0::InstPrefetch            0      0.00%    100.00% # Number of instructions issued per FU type, per thread (Count)
system.cpu.statIssuedInstType_0::SimdUnitStrideLoad            0      0.00%    100.00% # Number of instructions issued per FU type, per thread (Count)
system.cpu.statIssuedInstType_0::SimdUnitStrideStore            0      0.00%    100.00% # Number of instructions issued per FU type, per thread (Count)
system.cpu.statIssuedInstType_0::SimdUnitStrideMaskLoad            0      0.00%    100.00% # Number of instructions issued per FU type, per thread (Count)
system.cpu.statIssuedInstType_0::SimdUnitStrideMaskStore            0      0.00%    100.00% # Number of instructions issued per FU type, per thread (Count)
system.cpu.statIssuedInstType_0::SimdStridedLoad            0      0.00%    100.00% # Number of instructions issued per FU type, per thread (Count)
system.cpu.statIssuedInstType_0::SimdStridedStore            0      0.00%    100.00% # Number of instructions issued per FU type, per thread (Count)
system.cpu.statIssuedInstType_0::SimdIndexedLoad            0      0.00%    100.00% # Number of instructions issued per FU type, per thread (Count)
system.cpu.statIssuedInstType_0::SimdIndexedStore            0      0.00%    100.00% # Number of instructions issued per FU type, per thread (Count)
system.cpu.statIssuedInstType_0::SimdWholeRegisterLoad            0      0.00%    100.00% # Number of instructions issued per FU type, per thread (Count)
system.cpu.statIssuedInstType_0::SimdWholeRegisterStore            0      0.00%    100.00% # Number of instructions issued per FU type, per thread (Count)
system.cpu.statIssuedInstType_0::SimdUnitStrideFaultOnlyFirstLoad            0      0.00%    100.00% # Number of instructions issued per FU type, per thread (Count)
system.cpu.statIssuedInstType_0::SimdUnitStrideSegmentedLoad            0      0.00%    100.00% # Number of instructions issued per FU type, per thread (Count)
system.cpu.statIssuedInstType_0::SimdUnitStrideSegmentedStore            0      0.00%    100.00% # Number of instructions issued per FU type, per thread (Count)
system.cpu.statIssuedInstType_0::SimdExt            0      0.00%    100.00% # Number of instructions issued per FU type, per thread (Count)
system.cpu.statIssuedInstType_0::SimdFloatExt            0      0.00%    100.00% # Number of instructions issued per FU type, per thread (Count)
system.cpu.statIssuedInstType_0::SimdConfig            0      0.00%    100.00% # Number of instructions issued per FU type, per thread (Count)
system.cpu.statIssuedInstType_0::total      522552879                       # Number of instructions issued per FU type, per thread (Count)
system.cpu.issueRate                         3.445791                       # Inst issue rate ((Count/Cycle))
system.cpu.fuBusy                             9228141                       # FU busy when requested (Count)
system.cpu.fuBusyRate                        0.017660                       # FU busy rate (busy events/executed inst) ((Count/Count))
system.cpu.intInstQueueReads               1202435713                       # Number of integer instruction queue reads (Count)
system.cpu.intInstQueueWrites               674318751                       # Number of integer instruction queue writes (Count)
system.cpu.intInstQueueWakeupAccesses       512172335                       # Number of integer instruction queue wakeup accesses (Count)
system.cpu.fpInstQueueReads                   3927088                       # Number of floating instruction queue reads (Count)
system.cpu.fpInstQueueWrites                  2928579                       # Number of floating instruction queue writes (Count)
system.cpu.fpInstQueueWakeupAccesses          1808948                       # Number of floating instruction queue wakeup accesses (Count)
system.cpu.vecInstQueueReads                        0                       # Number of vector instruction queue reads (Count)
system.cpu.vecInstQueueWrites                       0                       # Number of vector instruction queue writes (Count)
system.cpu.vecInstQueueWakeupAccesses               0                       # Number of vector instruction queue wakeup accesses (Count)
system.cpu.intAluAccesses                   518797846                       # Number of integer alu accesses (Count)
system.cpu.fpAluAccesses                      1985189                       # Number of floating point alu accesses (Count)
system.cpu.vecAluAccesses                           0                       # Number of vector alu accesses (Count)
system.cpu.numSquashedInsts                   7095599                       # Number of squashed instructions skipped in execute (Count)
system.cpu.numSwp                                   0                       # Number of swp insts executed (Count)
system.cpu.timesIdled                           27431                       # Number of times that the entire CPU went into an idle state and unscheduled itself (Count)
system.cpu.idleCycles                          140665                       # Total number of cycles that the CPU has spent unscheduled due to idling (Cycle)
system.cpu.MemDepUnit__0.insertedLoads       71089690                       # Number of loads inserted to the mem dependence unit. (Count)
system.cpu.MemDepUnit__0.insertedStores      44409926                       # Number of stores inserted to the mem dependence unit. (Count)
system.cpu.MemDepUnit__0.conflictingLoads     29406280                       # Number of conflicting loads. (Count)
system.cpu.MemDepUnit__0.conflictingStores     18549209                       # Number of conflicting stores. (Count)
system.cpu.MemDepUnit__1.insertedLoads              0                       # Number of loads inserted to the mem dependence unit. (Count)
system.cpu.MemDepUnit__1.insertedStores             0                       # Number of stores inserted to the mem dependence unit. (Count)
system.cpu.MemDepUnit__1.conflictingLoads            0                       # Number of conflicting loads. (Count)
system.cpu.MemDepUnit__1.conflictingStores            0                       # Number of conflicting stores. (Count)
system.cpu.MemDepUnit__2.insertedLoads              0                       # Number of loads inserted to the mem dependence unit. (Count)
system.cpu.MemDepUnit__2.insertedStores             0                       # Number of stores inserted to the mem dependence unit. (Count)
system.cpu.MemDepUnit__2.conflictingLoads            0                       # Number of conflicting loads. (Count)
system.cpu.MemDepUnit__2.conflictingStores            0                       # Number of conflicting stores. (Count)
system.cpu.MemDepUnit__3.insertedLoads              0                       # Number of loads inserted to the mem dependence unit. (Count)
system.cpu.MemDepUnit__3.insertedStores             0                       # Number of stores inserted to the mem dependence unit. (Count)
system.cpu.MemDepUnit__3.conflictingLoads            0                       # Number of conflicting loads. (Count)
system.cpu.MemDepUnit__3.conflictingStores            0                       # Number of conflicting stores. (Count)
system.cpu.branchPred.lookups_0::NoBranch         2245      0.00%      0.00% # Number of BP lookups (Count)
system.cpu.branchPred.lookups_0::Return       2059061      2.64%      2.64% # Number of BP lookups (Count)
system.cpu.branchPred.lookups_0::CallDirect      1895100      2.43%      5.07% # Number of BP lookups (Count)
system.cpu.branchPred.lookups_0::CallIndirect         1323      0.00%      5.07% # Number of BP lookups (Count)
system.cpu.branchPred.lookups_0::DirectCond     66623868     85.35%     90.42% # Number of BP lookups (Count)
system.cpu.branchPred.lookups_0::DirectUncond      6484834      8.31%     98.73% # Number of BP lookups (Count)
system.cpu.branchPred.lookups_0::IndirectCond            0      0.00%     98.73% # Number of BP lookups (Count)
system.cpu.branchPred.lookups_0::IndirectUncond       989148      1.27%    100.00% # Number of BP lookups (Count)
system.cpu.branchPred.lookups_0::total       78055579                       # Number of BP lookups (Count)
system.cpu.branchPred.squashes_0::NoBranch         1932      0.01%      0.01% # Number of branches that got squashed (completely removed) as an earlier branch was mispredicted. (Count)
system.cpu.branchPred.squashes_0::Return       387209      1.93%      1.94% # Number of branches that got squashed (completely removed) as an earlier branch was mispredicted. (Count)
system.cpu.branchPred.squashes_0::CallDirect       223848      1.12%      3.06% # Number of branches that got squashed (completely removed) as an earlier branch was mispredicted. (Count)
system.cpu.branchPred.squashes_0::CallIndirect          718      0.00%      3.06% # Number of branches that got squashed (completely removed) as an earlier branch was mispredicted. (Count)
system.cpu.branchPred.squashes_0::DirectCond     17854203     89.02%     92.08% # Number of branches that got squashed (completely removed) as an earlier branch was mispredicted. (Count)
system.cpu.branchPred.squashes_0::DirectUncond      1411649      7.04%     99.12% # Number of branches that got squashed (completely removed) as an earlier branch was mispredicted. (Count)
system.cpu.branchPred.squashes_0::IndirectCond            0      0.00%     99.12% # Number of branches that got squashed (completely removed) as an earlier branch was mispredicted. (Count)
system.cpu.branchPred.squashes_0::IndirectUncond       176231      0.88%    100.00% # Number of branches that got squashed (completely removed) as an earlier branch was mispredicted. (Count)
system.cpu.branchPred.squashes_0::total      20055790                       # Number of branches that got squashed (completely removed) as an earlier branch was mispredicted. (Count)
system.cpu.branchPred.corrected_0::NoBranch          500      0.02%      0.02% # Number of branches that got corrected but not yet commited. Branches get corrected by decode or after execute. Also a branch misprediction can be detected out-of-order. Therefore, a corrected branch might not end up beeing committed in case an even earlier branch was mispredicted (Count)
system.cpu.branchPred.corrected_0::Return           23      0.00%      0.02% # Number of branches that got corrected but not yet commited. Branches get corrected by decode or after execute. Also a branch misprediction can be detected out-of-order. Therefore, a corrected branch might not end up beeing committed in case an even earlier branch was mispredicted (Count)
system.cpu.branchPred.corrected_0::CallDirect       128315      5.76%      5.78% # Number of branches that got corrected but not yet commited. Branches get corrected by decode or after execute. Also a branch misprediction can be detected out-of-order. Therefore, a corrected branch might not end up beeing committed in case an even earlier branch was mispredicted (Count)
system.cpu.branchPred.corrected_0::CallIndirect          242      0.01%      5.79% # Number of branches that got corrected but not yet commited. Branches get corrected by decode or after execute. Also a branch misprediction can be detected out-of-order. Therefore, a corrected branch might not end up beeing committed in case an even earlier branch was mispredicted (Count)
system.cpu.branchPred.corrected_0::DirectCond      2055016     92.22%     98.01% # Number of branches that got corrected but not yet commited. Branches get corrected by decode or after execute. Also a branch misprediction can be detected out-of-order. Therefore, a corrected branch might not end up beeing committed in case an even earlier branch was mispredicted (Count)
system.cpu.branchPred.corrected_0::DirectUncond        43123      1.94%     99.95% # Number of branches that got corrected but not yet commited. Branches get corrected by decode or after execute. Also a branch misprediction can be detected out-of-order. Therefore, a corrected branch might not end up beeing committed in case an even earlier branch was mispredicted (Count)
system.cpu.branchPred.corrected_0::IndirectCond            0      0.00%     99.95% # Number of branches that got corrected but not yet commited. Branches get corrected by decode or after execute. Also a branch misprediction can be detected out-of-order. Therefore, a corrected branch might not end up beeing committed in case an even earlier branch was mispredicted (Count)
system.cpu.branchPred.corrected_0::IndirectUncond         1162      0.05%    100.00% # Number of branches that got corrected but not yet commited. Branches get corrected by decode or after execute. Also a branch misprediction can be detected out-of-order. Therefore, a corrected branch might not end up beeing committed in case an even earlier branch was mispredicted (Count)
system.cpu.branchPred.corrected_0::total      2228381                       # Number of branches that got corrected but not yet commited. Branches get corrected by decode or after execute. Also a branch misprediction can be detected out-of-order. Therefore, a corrected branch might not end up beeing committed in case an even earlier branch was mispredicted (Count)
system.cpu.branchPred.earlyResteers_0::NoBranch            0                       # Number of branches that got redirected after decode. (Count)
system.cpu.branchPred.earlyResteers_0::Return            0                       # Number of branches that got redirected after decode. (Count)
system.cpu.branchPred.earlyResteers_0::CallDirect            0                       # Number of branches that got redirected after decode. (Count)
system.cpu.branchPred.earlyResteers_0::CallIndirect            0                       # Number of branches that got redirected after decode. (Count)
system.cpu.branchPred.earlyResteers_0::DirectCond            0                       # Number of branches that got redirected after decode. (Count)
system.cpu.branchPred.earlyResteers_0::DirectUncond            0                       # Number of branches that got redirected after decode. (Count)
system.cpu.branchPred.earlyResteers_0::IndirectCond            0                       # Number of branches that got redirected after decode. (Count)
system.cpu.branchPred.earlyResteers_0::IndirectUncond            0                       # Number of branches that got redirected after decode. (Count)
system.cpu.branchPred.earlyResteers_0::total            0                       # Number of branches that got redirected after decode. (Count)
system.cpu.branchPred.committed_0::NoBranch          313      0.00%      0.00% # Number of branches finally committed  (Count)
system.cpu.branchPred.committed_0::Return      1671851      2.88%      2.88% # Number of branches finally committed  (Count)
system.cpu.branchPred.committed_0::CallDirect      1671251      2.88%      5.76% # Number of branches finally committed  (Count)
system.cpu.branchPred.committed_0::CallIndirect          605      0.00%      5.77% # Number of branches finally committed  (Count)
system.cpu.branchPred.committed_0::DirectCond     48769665     84.09%     89.85% # Number of branches finally committed  (Count)
system.cpu.branchPred.committed_0::DirectUncond      5073185      8.75%     98.60% # Number of branches finally committed  (Count)
system.cpu.branchPred.committed_0::IndirectCond            0      0.00%     98.60% # Number of branches finally committed  (Count)
system.cpu.branchPred.committed_0::IndirectUncond       812917      1.40%    100.00% # Number of branches finally committed  (Count)
system.cpu.branchPred.committed_0::total     57999787                       # Number of branches finally committed  (Count)
system.cpu.branchPred.mispredicted_0::NoBranch          313      0.02%      0.02% # Number of committed branches that were mispredicted. (Count)
system.cpu.branchPred.mispredicted_0::Return           11      0.00%      0.02% # Number of committed branches that were mispredicted. (Count)
system.cpu.branchPred.mispredicted_0::CallDirect        86143      4.19%      4.21% # Number of committed branches that were mispredicted. (Count)
system.cpu.branchPred.mispredicted_0::CallIndirect          217      0.01%      4.22% # Number of committed branches that were mispredicted. (Count)
system.cpu.branchPred.mispredicted_0::DirectCond      1925294     93.65%     97.86% # Number of committed branches that were mispredicted. (Count)
system.cpu.branchPred.mispredicted_0::DirectUncond        42863      2.08%     99.95% # Number of committed branches that were mispredicted. (Count)
system.cpu.branchPred.mispredicted_0::IndirectCond            0      0.00%     99.95% # Number of committed branches that were mispredicted. (Count)
system.cpu.branchPred.mispredicted_0::IndirectUncond         1104      0.05%    100.00% # Number of committed branches that were mispredicted. (Count)
system.cpu.branchPred.mispredicted_0::total      2055945                       # Number of committed branches that were mispredicted. (Count)
system.cpu.branchPred.targetProvider_0::NoTarget     26979465     34.56%     34.56% # The component providing the target for taken branches (Count)
system.cpu.branchPred.targetProvider_0::BTB     48076050     61.59%     96.16% # The component providing the target for taken branches (Count)
system.cpu.branchPred.targetProvider_0::RAS      2059059      2.64%     98.79% # The component providing the target for taken branches (Count)
system.cpu.branchPred.targetProvider_0::Indirect       941005      1.21%    100.00% # The component providing the target for taken branches (Count)
system.cpu.branchPred.targetProvider_0::total     78055579                       # The component providing the target for taken branches (Count)
system.cpu.branchPred.targetWrong_0::NoBranch      1156401     51.95%     51.95% # Number of branches where the target was incorrect or not available at prediction time. (Count)
system.cpu.branchPred.targetWrong_0::Return      1069576     48.05%     99.99% # Number of branches where the target was incorrect or not available at prediction time. (Count)
system.cpu.branchPred.targetWrong_0::CallDirect           23      0.00%     99.99% # Number of branches where the target was incorrect or not available at prediction time. (Count)
system.cpu.branchPred.targetWrong_0::CallIndirect          137      0.01%    100.00% # Number of branches where the target was incorrect or not available at prediction time. (Count)
system.cpu.branchPred.targetWrong_0::DirectCond            0      0.00%    100.00% # Number of branches where the target was incorrect or not available at prediction time. (Count)
system.cpu.branchPred.targetWrong_0::DirectUncond            0      0.00%    100.00% # Number of branches where the target was incorrect or not available at prediction time. (Count)
system.cpu.branchPred.targetWrong_0::IndirectCond            0      0.00%    100.00% # Number of branches where the target was incorrect or not available at prediction time. (Count)
system.cpu.branchPred.targetWrong_0::IndirectUncond            0      0.00%    100.00% # Number of branches where the target was incorrect or not available at prediction time. (Count)
system.cpu.branchPred.targetWrong_0::total      2226137                       # Number of branches where the target was incorrect or not available at prediction time. (Count)
system.cpu.branchPred.condPredicted          66626113                       # Number of conditional branches predicted (Count)
system.cpu.branchPred.condPredictedTaken     39998479                       # Number of conditional branches predicted as taken (Count)
system.cpu.branchPred.condIncorrect           2228381                       # Number of conditional branches incorrect (Count)
system.cpu.branchPred.predTakenBTBMiss         256800                       # Number of branches predicted taken but missed in BTB (Count)
system.cpu.branchPred.NotTakenMispredicted      1158129                       # Number branches predicted 'not taken' but turned out to be taken (Count)
system.cpu.branchPred.TakenMispredicted       1070252                       # Number branches predicted taken but are actually not taken (Count)
system.cpu.branchPred.BTBLookups             78055579                       # Number of BTB lookups (Count)
system.cpu.branchPred.BTBUpdates              1156202                       # Number of BTB updates (Count)
system.cpu.branchPred.BTBHits                71125856                       # Number of BTB hits (Count)
system.cpu.branchPred.BTBHitRatio            0.911221                       # BTB Hit Ratio (Ratio)
system.cpu.branchPred.BTBMispredicted          257666                       # Number BTB mispredictions. No target found or target wrong (Count)
system.cpu.branchPred.indirectLookups          990471                       # Number of indirect predictor lookups. (Count)
system.cpu.branchPred.indirectHits             941005                       # Number of indirect target hits. (Count)
system.cpu.branchPred.indirectMisses            49466                       # Number of indirect misses. (Count)
system.cpu.branchPred.indirectMispredicted            0                       # Number of mispredicted indirect branches. (Count)
system.cpu.branchPred.btb.lookups::NoBranch         2245      0.00%      0.00% # Number of BTB lookups (Count)
system.cpu.branchPred.btb.lookups::Return      2059061      2.64%      2.64% # Number of BTB lookups (Count)
system.cpu.branchPred.btb.lookups::CallDirect      1895100      2.43%      5.07% # Number of BTB lookups (Count)
system.cpu.branchPred.btb.lookups::CallIndirect         1323      0.00%      5.07% # Number of BTB lookups (Count)
system.cpu.branchPred.btb.lookups::DirectCond     66623868     85.35%     90.42% # Number of BTB lookups (Count)
system.cpu.branchPred.btb.lookups::DirectUncond      6484834      8.31%     98.73% # Number of BTB lookups (Count)
system.cpu.branchPred.btb.lookups::IndirectCond            0      0.00%     98.73% # Number of BTB lookups (Count)
system.cpu.branchPred.btb.lookups::IndirectUncond       989148      1.27%    100.00% # Number of BTB lookups (Count)
system.cpu.branchPred.btb.lookups::total     78055579                       # Number of BTB lookups (Count)
system.cpu.branchPred.btb.misses::NoBranch          432      0.01%      0.01% # Number of BTB misses (Count)
system.cpu.branchPred.btb.misses::Return      2059061     29.71%     29.72% # Number of BTB misses (Count)
system.cpu.branchPred.btb.misses::CallDirect       128820      1.86%     31.58% # Number of BTB misses (Count)
system.cpu.branchPred.btb.misses::CallIndirect         1323      0.02%     31.60% # Number of BTB misses (Count)
system.cpu.branchPred.btb.misses::DirectCond      3707490     53.50%     85.10% # Number of BTB misses (Count)
system.cpu.branchPred.btb.misses::DirectUncond        43449      0.63%     85.73% # Number of BTB misses (Count)
system.cpu.branchPred.btb.misses::IndirectCond            0      0.00%     85.73% # Number of BTB misses (Count)
system.cpu.branchPred.btb.misses::IndirectUncond       989148     14.27%    100.00% # Number of BTB misses (Count)
system.cpu.branchPred.btb.misses::total       6929723                       # Number of BTB misses (Count)
system.cpu.branchPred.btb.updates::NoBranch            0      0.00%      0.00% # Number of BTB updates (Count)
system.cpu.branchPred.btb.updates::Return            0      0.00%      0.00% # Number of BTB updates (Count)
system.cpu.branchPred.btb.updates::CallDirect       128315     11.10%     11.10% # Number of BTB updates (Count)
system.cpu.branchPred.btb.updates::CallIndirect            0      0.00%     11.10% # Number of BTB updates (Count)
system.cpu.branchPred.btb.updates::DirectCond       984764     85.17%     96.27% # Number of BTB updates (Count)
system.cpu.branchPred.btb.updates::DirectUncond        43123      3.73%    100.00% # Number of BTB updates (Count)
system.cpu.branchPred.btb.updates::IndirectCond            0      0.00%    100.00% # Number of BTB updates (Count)
system.cpu.branchPred.btb.updates::IndirectUncond            0      0.00%    100.00% # Number of BTB updates (Count)
system.cpu.branchPred.btb.updates::total      1156202                       # Number of BTB updates (Count)
system.cpu.branchPred.btb.mispredict::NoBranch            0      0.00%      0.00% # Number of BTB mispredictions. No target found or target wrong. (Count)
system.cpu.branchPred.btb.mispredict::Return            0      0.00%      0.00% # Number of BTB mispredictions. No target found or target wrong. (Count)
system.cpu.branchPred.btb.mispredict::CallDirect       128315     11.10%     11.10% # Number of BTB mispredictions. No target found or target wrong. (Count)
system.cpu.branchPred.btb.mispredict::CallIndirect            0      0.00%     11.10% # Number of BTB mispredictions. No target found or target wrong. (Count)
system.cpu.branchPred.btb.mispredict::DirectCond       984764     85.17%     96.27% # Number of BTB mispredictions. No target found or target wrong. (Count)
system.cpu.branchPred.btb.mispredict::DirectUncond        43123      3.73%    100.00% # Number of BTB mispredictions. No target found or target wrong. (Count)
system.cpu.branchPred.btb.mispredict::IndirectCond            0      0.00%    100.00% # Number of BTB mispredictions. No target found or target wrong. (Count)
system.cpu.branchPred.btb.mispredict::IndirectUncond            0      0.00%    100.00% # Number of BTB mispredictions. No target found or target wrong. (Count)
system.cpu.branchPred.btb.mispredict::total      1156202                       # Number of BTB mispredictions. No target found or target wrong. (Count)
system.cpu.branchPred.btb.power_state.pwrStateResidencyTicks::UNDEFINED 2021944090134                       # Cumulative time (in ticks) in various power states (Tick)
system.cpu.branchPred.indirectBranchPred.lookups       990471                       # Number of lookups (Count)
system.cpu.branchPred.indirectBranchPred.hits       941005                       # Number of hits of a tag (Count)
system.cpu.branchPred.indirectBranchPred.misses        49466                       # Number of misses (Count)
system.cpu.branchPred.indirectBranchPred.targetRecords         1404                       # Number of targets that where recorded/installed in the cache (Count)
system.cpu.branchPred.indirectBranchPred.indirectRecords       991875                       # Number of indirect branches/calls recorded in the indirect hist (Count)
system.cpu.branchPred.indirectBranchPred.speculativeOverflows            1                       # Number of times more than the allowed capacity for speculative branches/calls where in flight and destroy the path history (Count)
system.cpu.branchPred.ras.pushes              2283632                       # Number of times a PC was pushed onto the RAS (Count)
system.cpu.branchPred.ras.pops                2283627                       # Number of times a PC was poped from the RAS (Count)
system.cpu.branchPred.ras.squashes             611775                       # Number of times the stack operation was squashed due to wrong speculation. (Count)
system.cpu.branchPred.ras.used                1671851                       # Number of times the RAS is the provider (Count)
system.cpu.branchPred.ras.correct             1671840                       # Number of times the RAS is the provider and the prediction is correct (Count)
system.cpu.branchPred.ras.incorrect                11                       # Number of times the RAS is the provider and the prediction is wrong (Count)
system.cpu.commit.commitSquashedInsts       113798068                       # The number of squashed insts skipped by commit (Count)
system.cpu.commit.commitNonSpecStalls            3503                       # The number of times commit has been forced to stall to communicate backwards (Count)
system.cpu.commit.branchMispredicts           2056979                       # The number of times a branch was mispredicted (Count)
system.cpu.commit.numCommittedDist::samples    135893313                       # Number of insts commited each cycle (Count)
system.cpu.commit.numCommittedDist::mean     3.246383                       # Number of insts commited each cycle (Count)
system.cpu.commit.numCommittedDist::stdev     2.872100                       # Number of insts commited each cycle (Count)
system.cpu.commit.numCommittedDist::underflows            0      0.00%      0.00% # Number of insts commited each cycle (Count)
system.cpu.commit.numCommittedDist::0        38530870     28.35%     28.35% # Number of insts commited each cycle (Count)
system.cpu.commit.numCommittedDist::1         6363914      4.68%     33.04% # Number of insts commited each cycle (Count)
system.cpu.commit.numCommittedDist::2         8162980      6.01%     39.04% # Number of insts commited each cycle (Count)
system.cpu.commit.numCommittedDist::3        37999292     27.96%     67.01% # Number of insts commited each cycle (Count)
system.cpu.commit.numCommittedDist::4         6753966      4.97%     71.98% # Number of insts commited each cycle (Count)
system.cpu.commit.numCommittedDist::5         4232466      3.11%     75.09% # Number of insts commited each cycle (Count)
system.cpu.commit.numCommittedDist::6         4713188      3.47%     78.56% # Number of insts commited each cycle (Count)
system.cpu.commit.numCommittedDist::7         5076391      3.74%     82.29% # Number of insts commited each cycle (Count)
system.cpu.commit.numCommittedDist::8        24060246     17.71%    100.00% # Number of insts commited each cycle (Count)
system.cpu.commit.numCommittedDist::overflows            0      0.00%    100.00% # Number of insts commited each cycle (Count)
system.cpu.commit.numCommittedDist::min_value            0                       # Number of insts commited each cycle (Count)
system.cpu.commit.numCommittedDist::max_value            8                       # Number of insts commited each cycle (Count)
system.cpu.commit.numCommittedDist::total    135893313                       # Number of insts commited each cycle (Count)
system.cpu.commit.amos                              0                       # Number of atomic instructions committed (Count)
system.cpu.commit.membars                        1836                       # Number of memory barriers committed (Count)
system.cpu.commit.functionCalls               1671856                       # Number of function calls committed. (Count)
system.cpu.commit.committedInstType_0::No_OpClass      8858071      2.01%      2.01% # Class of committed instruction (Count)
system.cpu.commit.committedInstType_0::IntAlu    340802422     77.25%     79.26% # Class of committed instruction (Count)
system.cpu.commit.committedInstType_0::IntMult       128009      0.03%     79.29% # Class of committed instruction (Count)
system.cpu.commit.committedInstType_0::IntDiv        39630      0.01%     79.30% # Class of committed instruction (Count)
system.cpu.commit.committedInstType_0::FloatAdd       134697      0.03%     79.33% # Class of committed instruction (Count)
system.cpu.commit.committedInstType_0::FloatCmp            0      0.00%     79.33% # Class of committed instruction (Count)
system.cpu.commit.committedInstType_0::FloatCvt         1312      0.00%     79.33% # Class of committed instruction (Count)
system.cpu.commit.committedInstType_0::FloatMult            0      0.00%     79.33% # Class of committed instruction (Count)
system.cpu.commit.committedInstType_0::FloatMultAcc            0      0.00%     79.33% # Class of committed instruction (Count)
system.cpu.commit.committedInstType_0::FloatDiv            0      0.00%     79.33% # Class of committed instruction (Count)
system.cpu.commit.committedInstType_0::FloatMisc            0      0.00%     79.33% # Class of committed instruction (Count)
system.cpu.commit.committedInstType_0::FloatSqrt            0      0.00%     79.33% # Class of committed instruction (Count)
system.cpu.commit.committedInstType_0::SimdAdd         6606      0.00%     79.33% # Class of committed instruction (Count)
system.cpu.commit.committedInstType_0::SimdAddAcc            0      0.00%     79.33% # Class of committed instruction (Count)
system.cpu.commit.committedInstType_0::SimdAlu       438237      0.10%     79.43% # Class of committed instruction (Count)
system.cpu.commit.committedInstType_0::SimdCmp            6      0.00%     79.43% # Class of committed instruction (Count)
system.cpu.commit.committedInstType_0::SimdCvt        98690      0.02%     79.45% # Class of committed instruction (Count)
system.cpu.commit.committedInstType_0::SimdMisc       141015      0.03%     79.48% # Class of committed instruction (Count)
system.cpu.commit.committedInstType_0::SimdMult            0      0.00%     79.48% # Class of committed instruction (Count)
system.cpu.commit.committedInstType_0::SimdMultAcc            0      0.00%     79.48% # Class of committed instruction (Count)
system.cpu.commit.committedInstType_0::SimdMatMultAcc            0      0.00%     79.48% # Class of committed instruction (Count)
system.cpu.commit.committedInstType_0::SimdShift         1828      0.00%     79.48% # Class of committed instruction (Count)
system.cpu.commit.committedInstType_0::SimdShiftAcc            0      0.00%     79.48% # Class of committed instruction (Count)
system.cpu.commit.committedInstType_0::SimdDiv            0      0.00%     79.48% # Class of committed instruction (Count)
system.cpu.commit.committedInstType_0::SimdSqrt            0      0.00%     79.48% # Class of committed instruction (Count)
system.cpu.commit.committedInstType_0::SimdFloatAdd        42501      0.01%     79.49% # Class of committed instruction (Count)
system.cpu.commit.committedInstType_0::SimdFloatAlu            0      0.00%     79.49% # Class of committed instruction (Count)
system.cpu.commit.committedInstType_0::SimdFloatCmp            0      0.00%     79.49% # Class of committed instruction (Count)
system.cpu.commit.committedInstType_0::SimdFloatCvt        85002      0.02%     79.51% # Class of committed instruction (Count)
system.cpu.commit.committedInstType_0::SimdFloatDiv        42501      0.01%     79.52% # Class of committed instruction (Count)
system.cpu.commit.committedInstType_0::SimdFloatMisc            0      0.00%     79.52% # Class of committed instruction (Count)
system.cpu.commit.committedInstType_0::SimdFloatMult            0      0.00%     79.52% # Class of committed instruction (Count)
system.cpu.commit.committedInstType_0::SimdFloatMultAcc            0      0.00%     79.52% # Class of committed instruction (Count)
system.cpu.commit.committedInstType_0::SimdFloatMatMultAcc            0      0.00%     79.52% # Class of committed instruction (Count)
system.cpu.commit.committedInstType_0::SimdFloatSqrt            0      0.00%     79.52% # Class of committed instruction (Count)
system.cpu.commit.committedInstType_0::SimdReduceAdd            0      0.00%     79.52% # Class of committed instruction (Count)
system.cpu.commit.committedInstType_0::SimdReduceAlu            0      0.00%     79.52% # Class of committed instruction (Count)
system.cpu.commit.committedInstType_0::SimdReduceCmp            0      0.00%     79.52% # Class of committed instruction (Count)
system.cpu.commit.committedInstType_0::SimdFloatReduceAdd            0      0.00%     79.52% # Class of committed instruction (Count)
system.cpu.commit.committedInstType_0::SimdFloatReduceCmp            0      0.00%     79.52% # Class of committed instruction (Count)
system.cpu.commit.committedInstType_0::SimdAes            0      0.00%     79.52% # Class of committed instruction (Count)
system.cpu.commit.committedInstType_0::SimdAesMix            0      0.00%     79.52% # Class of committed instruction (Count)
system.cpu.commit.committedInstType_0::SimdSha1Hash            0      0.00%     79.52% # Class of committed instruction (Count)
system.cpu.commit.committedInstType_0::SimdSha1Hash2            0      0.00%     79.52% # Class of committed instruction (Count)
system.cpu.commit.committedInstType_0::SimdSha256Hash            0      0.00%     79.52% # Class of committed instruction (Count)
system.cpu.commit.committedInstType_0::SimdSha256Hash2            0      0.00%     79.52% # Class of committed instruction (Count)
system.cpu.commit.committedInstType_0::SimdShaSigma2            0      0.00%     79.52% # Class of committed instruction (Count)
system.cpu.commit.committedInstType_0::SimdShaSigma3            0      0.00%     79.52% # Class of committed instruction (Count)
system.cpu.commit.committedInstType_0::SimdPredAlu            0      0.00%     79.52% # Class of committed instruction (Count)
system.cpu.commit.committedInstType_0::Matrix            0      0.00%     79.52% # Class of committed instruction (Count)
system.cpu.commit.committedInstType_0::MatrixMov            0      0.00%     79.52% # Class of committed instruction (Count)
system.cpu.commit.committedInstType_0::MatrixOP            0      0.00%     79.52% # Class of committed instruction (Count)
system.cpu.commit.committedInstType_0::MemRead     55808322     12.65%     92.17% # Class of committed instruction (Count)
system.cpu.commit.committedInstType_0::MemWrite     34032825      7.71%     99.89% # Class of committed instruction (Count)
system.cpu.commit.committedInstType_0::FloatMemRead       357629      0.08%     99.97% # Class of committed instruction (Count)
system.cpu.commit.committedInstType_0::FloatMemWrite       142474      0.03%    100.00% # Class of committed instruction (Count)
system.cpu.commit.committedInstType_0::IprAccess            0      0.00%    100.00% # Class of committed instruction (Count)
system.cpu.commit.committedInstType_0::InstPrefetch            0      0.00%    100.00% # Class of committed instruction (Count)
system.cpu.commit.committedInstType_0::SimdUnitStrideLoad            0      0.00%    100.00% # Class of committed instruction (Count)
system.cpu.commit.committedInstType_0::SimdUnitStrideStore            0      0.00%    100.00% # Class of committed instruction (Count)
system.cpu.commit.committedInstType_0::SimdUnitStrideMaskLoad            0      0.00%    100.00% # Class of committed instruction (Count)
system.cpu.commit.committedInstType_0::SimdUnitStrideMaskStore            0      0.00%    100.00% # Class of committed instruction (Count)
system.cpu.commit.committedInstType_0::SimdStridedLoad            0      0.00%    100.00% # Class of committed instruction (Count)
system.cpu.commit.committedInstType_0::SimdStridedStore            0      0.00%    100.00% # Class of committed instruction (Count)
system.cpu.commit.committedInstType_0::SimdIndexedLoad            0      0.00%    100.00% # Class of committed instruction (Count)
system.cpu.commit.committedInstType_0::SimdIndexedStore            0      0.00%    100.00% # Class of committed instruction (Count)
system.cpu.commit.committedInstType_0::SimdWholeRegisterLoad            0      0.00%    100.00% # Class of committed instruction (Count)
system.cpu.commit.committedInstType_0::SimdWholeRegisterStore            0      0.00%    100.00% # Class of committed instruction (Count)
system.cpu.commit.committedInstType_0::SimdUnitStrideFaultOnlyFirstLoad            0      0.00%    100.00% # Class of committed instruction (Count)
system.cpu.commit.committedInstType_0::SimdUnitStrideSegmentedLoad            0      0.00%    100.00% # Class of committed instruction (Count)
system.cpu.commit.committedInstType_0::SimdUnitStrideSegmentedStore            0      0.00%    100.00% # Class of committed instruction (Count)
system.cpu.commit.committedInstType_0::SimdExt            0      0.00%    100.00% # Class of committed instruction (Count)
system.cpu.commit.committedInstType_0::SimdFloatExt            0      0.00%    100.00% # Class of committed instruction (Count)
system.cpu.commit.committedInstType_0::SimdConfig            0      0.00%    100.00% # Class of committed instruction (Count)
system.cpu.commit.committedInstType_0::total    441161777                       # Class of committed instruction (Count)
system.cpu.commit.commitEligibleSamples      24060246                       # number cycles where commit BW limit reached (Cycle)
system.cpu.commitStats0.numInsts            265955911                       # Number of instructions committed (thread level) (Count)
system.cpu.commitStats0.numOps              441161777                       # Number of ops (including micro ops) committed (thread level) (Count)
system.cpu.commitStats0.numInstsNotNOP      265955911                       # Number of instructions committed excluding NOPs or prefetches (Count)
system.cpu.commitStats0.numOpsNotNOP        441161777                       # Number of Ops (including micro ops) Simulated (Count)
system.cpu.commitStats0.cpi                  0.570206                       # CPI: cycles per instruction (thread level) ((Cycle/Count))
system.cpu.commitStats0.ipc                  1.753753                       # IPC: instructions per cycle (thread level) ((Count/Cycle))
system.cpu.commitStats0.numMemRefs           90341250                       # Number of memory references committed (Count)
system.cpu.commitStats0.numFpInsts            1496399                       # Number of float instructions (Count)
system.cpu.commitStats0.numIntInsts         431350228                       # Number of integer instructions (Count)
system.cpu.commitStats0.numLoadInsts         56165951                       # Number of load instructions (Count)
system.cpu.commitStats0.numStoreInsts        34175299                       # Number of store instructions (Count)
system.cpu.commitStats0.numVecInsts                 0                       # Number of vector instructions (Count)
system.cpu.commitStats0.committedInstType::No_OpClass      8858071      2.01%      2.01% # Class of committed instruction. (Count)
system.cpu.commitStats0.committedInstType::IntAlu    340802422     77.25%     79.26% # Class of committed instruction. (Count)
system.cpu.commitStats0.committedInstType::IntMult       128009      0.03%     79.29% # Class of committed instruction. (Count)
system.cpu.commitStats0.committedInstType::IntDiv        39630      0.01%     79.30% # Class of committed instruction. (Count)
system.cpu.commitStats0.committedInstType::FloatAdd       134697      0.03%     79.33% # Class of committed instruction. (Count)
system.cpu.commitStats0.committedInstType::FloatCmp            0      0.00%     79.33% # Class of committed instruction. (Count)
system.cpu.commitStats0.committedInstType::FloatCvt         1312      0.00%     79.33% # Class of committed instruction. (Count)
system.cpu.commitStats0.committedInstType::FloatMult            0      0.00%     79.33% # Class of committed instruction. (Count)
system.cpu.commitStats0.committedInstType::FloatMultAcc            0      0.00%     79.33% # Class of committed instruction. (Count)
system.cpu.commitStats0.committedInstType::FloatDiv            0      0.00%     79.33% # Class of committed instruction. (Count)
system.cpu.commitStats0.committedInstType::FloatMisc            0      0.00%     79.33% # Class of committed instruction. (Count)
system.cpu.commitStats0.committedInstType::FloatSqrt            0      0.00%     79.33% # Class of committed instruction. (Count)
system.cpu.commitStats0.committedInstType::SimdAdd         6606      0.00%     79.33% # Class of committed instruction. (Count)
system.cpu.commitStats0.committedInstType::SimdAddAcc            0      0.00%     79.33% # Class of committed instruction. (Count)
system.cpu.commitStats0.committedInstType::SimdAlu       438237      0.10%     79.43% # Class of committed instruction. (Count)
system.cpu.commitStats0.committedInstType::SimdCmp            6      0.00%     79.43% # Class of committed instruction. (Count)
system.cpu.commitStats0.committedInstType::SimdCvt        98690      0.02%     79.45% # Class of committed instruction. (Count)
system.cpu.commitStats0.committedInstType::SimdMisc       141015      0.03%     79.48% # Class of committed instruction. (Count)
system.cpu.commitStats0.committedInstType::SimdMult            0      0.00%     79.48% # Class of committed instruction. (Count)
system.cpu.commitStats0.committedInstType::SimdMultAcc            0      0.00%     79.48% # Class of committed instruction. (Count)
system.cpu.commitStats0.committedInstType::SimdMatMultAcc            0      0.00%     79.48% # Class of committed instruction. (Count)
system.cpu.commitStats0.committedInstType::SimdShift         1828      0.00%     79.48% # Class of committed instruction. (Count)
system.cpu.commitStats0.committedInstType::SimdShiftAcc            0      0.00%     79.48% # Class of committed instruction. (Count)
system.cpu.commitStats0.committedInstType::SimdDiv            0      0.00%     79.48% # Class of committed instruction. (Count)
system.cpu.commitStats0.committedInstType::SimdSqrt            0      0.00%     79.48% # Class of committed instruction. (Count)
system.cpu.commitStats0.committedInstType::SimdFloatAdd        42501      0.01%     79.49% # Class of committed instruction. (Count)
system.cpu.commitStats0.committedInstType::SimdFloatAlu            0      0.00%     79.49% # Class of committed instruction. (Count)
system.cpu.commitStats0.committedInstType::SimdFloatCmp            0      0.00%     79.49% # Class of committed instruction. (Count)
system.cpu.commitStats0.committedInstType::SimdFloatCvt        85002      0.02%     79.51% # Class of committed instruction. (Count)
system.cpu.commitStats0.committedInstType::SimdFloatDiv        42501      0.01%     79.52% # Class of committed instruction. (Count)
system.cpu.commitStats0.committedInstType::SimdFloatMisc            0      0.00%     79.52% # Class of committed instruction. (Count)
system.cpu.commitStats0.committedInstType::SimdFloatMult            0      0.00%     79.52% # Class of committed instruction. (Count)
system.cpu.commitStats0.committedInstType::SimdFloatMultAcc            0      0.00%     79.52% # Class of committed instruction. (Count)
system.cpu.commitStats0.committedInstType::SimdFloatMatMultAcc            0      0.00%     79.52% # Class of committed instruction. (Count)
system.cpu.commitStats0.committedInstType::SimdFloatSqrt            0      0.00%     79.52% # Class of committed instruction. (Count)
system.cpu.commitStats0.committedInstType::SimdReduceAdd            0      0.00%     79.52% # Class of committed instruction. (Count)
system.cpu.commitStats0.committedInstType::SimdReduceAlu            0      0.00%     79.52% # Class of committed instruction. (Count)
system.cpu.commitStats0.committedInstType::SimdReduceCmp            0      0.00%     79.52% # Class of committed instruction. (Count)
system.cpu.commitStats0.committedInstType::SimdFloatReduceAdd            0      0.00%     79.52% # Class of committed instruction. (Count)
system.cpu.commitStats0.committedInstType::SimdFloatReduceCmp            0      0.00%     79.52% # Class of committed instruction. (Count)
system.cpu.commitStats0.committedInstType::SimdAes            0      0.00%     79.52% # Class of committed instruction. (Count)
system.cpu.commitStats0.committedInstType::SimdAesMix            0      0.00%     79.52% # Class of committed instruction. (Count)
system.cpu.commitStats0.committedInstType::SimdSha1Hash            0      0.00%     79.52% # Class of committed instruction. (Count)
system.cpu.commitStats0.committedInstType::SimdSha1Hash2            0      0.00%     79.52% # Class of committed instruction. (Count)
system.cpu.commitStats0.committedInstType::SimdSha256Hash            0      0.00%     79.52% # Class of committed instruction. (Count)
system.cpu.commitStats0.committedInstType::SimdSha256Hash2            0      0.00%     79.52% # Class of committed instruction. (Count)
system.cpu.commitStats0.committedInstType::SimdShaSigma2            0      0.00%     79.52% # Class of committed instruction. (Count)
system.cpu.commitStats0.committedInstType::SimdShaSigma3            0      0.00%     79.52% # Class of committed instruction. (Count)
system.cpu.commitStats0.committedInstType::SimdPredAlu            0      0.00%     79.52% # Class of committed instruction. (Count)
system.cpu.commitStats0.committedInstType::Matrix            0      0.00%     79.52% # Class of committed instruction. (Count)
system.cpu.commitStats0.committedInstType::MatrixMov            0      0.00%     79.52% # Class of committed instruction. (Count)
system.cpu.commitStats0.committedInstType::MatrixOP            0      0.00%     79.52% # Class of committed instruction. (Count)
system.cpu.commitStats0.committedInstType::MemRead     55808322     12.65%     92.17% # Class of committed instruction. (Count)
system.cpu.commitStats0.committedInstType::MemWrite     34032825      7.71%     99.89% # Class of committed instruction. (Count)
system.cpu.commitStats0.committedInstType::FloatMemRead       357629      0.08%     99.97% # Class of committed instruction. (Count)
system.cpu.commitStats0.committedInstType::FloatMemWrite       142474      0.03%    100.00% # Class of committed instruction. (Count)
system.cpu.commitStats0.committedInstType::IprAccess            0      0.00%    100.00% # Class of committed instruction. (Count)
system.cpu.commitStats0.committedInstType::InstPrefetch            0      0.00%    100.00% # Class of committed instruction. (Count)
system.cpu.commitStats0.committedInstType::SimdUnitStrideLoad            0      0.00%    100.00% # Class of committed instruction. (Count)
system.cpu.commitStats0.committedInstType::SimdUnitStrideStore            0      0.00%    100.00% # Class of committed instruction. (Count)
system.cpu.commitStats0.committedInstType::SimdUnitStrideMaskLoad            0      0.00%    100.00% # Class of committed instruction. (Count)
system.cpu.commitStats0.committedInstType::SimdUnitStrideMaskStore            0      0.00%    100.00% # Class of committed instruction. (Count)
system.cpu.commitStats0.committedInstType::SimdStridedLoad            0      0.00%    100.00% # Class of committed instruction. (Count)
system.cpu.commitStats0.committedInstType::SimdStridedStore            0      0.00%    100.00% # Class of committed instruction. (Count)
system.cpu.commitStats0.committedInstType::SimdIndexedLoad            0      0.00%    100.00% # Class of committed instruction. (Count)
system.cpu.commitStats0.committedInstType::SimdIndexedStore            0      0.00%    100.00% # Class of committed instruction. (Count)
system.cpu.commitStats0.committedInstType::SimdWholeRegisterLoad            0      0.00%    100.00% # Class of committed instruction. (Count)
system.cpu.commitStats0.committedInstType::SimdWholeRegisterStore            0      0.00%    100.00% # Class of committed instruction. (Count)
system.cpu.commitStats0.committedInstType::SimdUnitStrideFaultOnlyFirstLoad            0      0.00%    100.00% # Class of committed instruction. (Count)
system.cpu.commitStats0.committedInstType::SimdUnitStrideSegmentedLoad            0      0.00%    100.00% # Class of committed instruction. (Count)
system.cpu.commitStats0.committedInstType::SimdUnitStrideSegmentedStore            0      0.00%    100.00% # Class of committed instruction. (Count)
system.cpu.commitStats0.committedInstType::SimdExt            0      0.00%    100.00% # Class of committed instruction. (Count)
system.cpu.commitStats0.committedInstType::SimdFloatExt            0      0.00%    100.00% # Class of committed instruction. (Count)
system.cpu.commitStats0.committedInstType::SimdConfig            0      0.00%    100.00% # Class of committed instruction. (Count)
system.cpu.commitStats0.committedInstType::total    441161777                       # Class of committed instruction. (Count)
system.cpu.commitStats0.committedControl::IsControl     57999787                       # Class of control type instructions committed (Count)
system.cpu.commitStats0.committedControl::IsDirectControl     55514101                       # Class of control type instructions committed (Count)
system.cpu.commitStats0.committedControl::IsIndirectControl      2485373                       # Class of control type instructions committed (Count)
system.cpu.commitStats0.committedControl::IsCondControl     48769665                       # Class of control type instructions committed (Count)
system.cpu.commitStats0.committedControl::IsUncondControl      9229809                       # Class of control type instructions committed (Count)
system.cpu.commitStats0.committedControl::IsCall      1671856                       # Class of control type instructions committed (Count)
system.cpu.commitStats0.committedControl::IsReturn      1671851                       # Class of control type instructions committed (Count)
system.cpu.decode.idleCycles                 38200404                       # Number of cycles decode is idle (Cycle)
system.cpu.decode.blockedCycles              16134236                       # Number of cycles decode is blocked (Cycle)
system.cpu.decode.runCycles                  88077669                       # Number of cycles decode is running (Cycle)
system.cpu.decode.unblockCycles               6950329                       # Number of cycles decode is unblocking (Cycle)
system.cpu.decode.squashCycles                2146296                       # Number of cycles decode is squashing (Cycle)
system.cpu.decode.branchResolved             46781679                       # Number of times decode resolved a branch (Count)
system.cpu.decode.branchMispred                171649                       # Number of times decode detected a branch misprediction (Count)
system.cpu.decode.decodedInsts              589205792                       # Number of instructions handled by decode (Count)
system.cpu.decode.squashedInsts               1242514                       # Number of squashed instructions handled by decode (Count)
system.cpu.executeStats0.numInsts           515457279                       # Number of executed instructions (Count)
system.cpu.executeStats0.numNop                     0                       # Number of nop insts executed (Count)
system.cpu.executeStats0.numBranches         62208188                       # Number of branches executed (Count)
system.cpu.executeStats0.numLoadInsts        61780587                       # Number of load instructions executed (Count)
system.cpu.executeStats0.numStoreInsts       37076794                       # Number of stores executed (Count)
system.cpu.executeStats0.instRate            3.399002                       # Inst execution rate ((Count/Cycle))
system.cpu.executeStats0.numCCRegReads      266851753                       # Number of times the CC registers were read (Count)
system.cpu.executeStats0.numCCRegWrites     208158317                       # Number of times the CC registers were written (Count)
system.cpu.executeStats0.numFpRegReads        2107434                       # Number of times the floating registers were read (Count)
system.cpu.executeStats0.numFpRegWrites       1529619                       # Number of times the floating registers were written (Count)
system.cpu.executeStats0.numIntRegReads     542656795                       # Number of times the integer registers were read (Count)
system.cpu.executeStats0.numIntRegWrites    351158236                       # Number of times the integer registers were written (Count)
system.cpu.executeStats0.numMemRefs          98857381                       # Number of memory refs (Count)
system.cpu.executeStats0.numMiscRegReads    230387798                       # Number of times the Misc registers were read (Count)
system.cpu.executeStats0.numMiscRegWrites          738                       # Number of times the Misc registers were written (Count)
system.cpu.executeStats0.numVecAluAccesses            0                       # Number of vector alu accesses (Count)
system.cpu.executeStats0.numDiscardedOps            0                       # Number of ops (including micro ops) which were discarded before commit (Count)
system.cpu.fetch.predictedBranches           51076114                       # Number of branches that fetch has predicted taken (Count)
system.cpu.fetch.cycles                     115686822                       # Number of cycles fetch has run and was not squashing or blocked (Cycle)
system.cpu.fetch.squashCycles                 4635762                       # Number of cycles fetch has spent squashing (Cycle)
system.cpu.fetch.miscStallCycles                  238                       # Number of cycles fetch has spent waiting on interrupts, or bad addresses, or out of MSHRs (Cycle)
system.cpu.fetch.pendingTrapStallCycles          2291                       # Number of stall cycles due to pending traps (Cycle)
system.cpu.fetch.cacheLines                  61742205                       # Number of cache lines fetched (Count)
[...]
system.mem_ctrl.dram.bwRead::total          251996861                       # Total read bandwidth from this memory ((Byte/Second))
system.mem_ctrl.dram.bwInstRead::cpu.inst    129104240                       # Instruction read bandwidth from this memory ((Byte/Second))
system.mem_ctrl.dram.bwInstRead::total      129104240                       # Instruction read bandwidth from this memory ((Byte/Second))
system.mem_ctrl.dram.bwWrite::writebacks     35686361                       # Write bandwidth from this memory ((Byte/Second))
system.mem_ctrl.dram.bwWrite::total          35686361                       # Write bandwidth from this memory ((Byte/Second))
system.mem_ctrl.dram.bwTotal::writebacks     35686361                       # Total bandwidth to/from this memory ((Byte/Second))
system.mem_ctrl.dram.bwTotal::cpu.inst      129104240                       # Total bandwidth to/from this memory ((Byte/Second))
system.mem_ctrl.dram.bwTotal::cpu.data      122892621                       # Total bandwidth to/from this memory ((Byte/Second))
system.mem_ctrl.dram.bwTotal::total         287683222                       # Total bandwidth to/from this memory ((Byte/Second))
system.mem_ctrl.dram.readBursts                  3888                       # Number of DRAM read bursts (Count)
system.mem_ctrl.dram.writeBursts                  501                       # Number of DRAM write bursts (Count)
system.mem_ctrl.dram.perBankRdBursts::0           162                       # Per bank write bursts (Count)
system.mem_ctrl.dram.perBankRdBursts::1           273                       # Per bank write bursts (Count)
system.mem_ctrl.dram.perBankRdBursts::2           199                       # Per bank write bursts (Count)
system.mem_ctrl.dram.perBankRdBursts::3           136                       # Per bank write bursts (Count)
system.mem_ctrl.dram.perBankRdBursts::4           151                       # Per bank write bursts (Count)
system.mem_ctrl.dram.perBankRdBursts::5           524                       # Per bank write bursts (Count)
system.mem_ctrl.dram.perBankRdBursts::6           413                       # Per bank write bursts (Count)
system.mem_ctrl.dram.perBankRdBursts::7           107                       # Per bank write bursts (Count)
system.mem_ctrl.dram.perBankRdBursts::8           264                       # Per bank write bursts (Count)
system.mem_ctrl.dram.perBankRdBursts::9           204                       # Per bank write bursts (Count)
system.mem_ctrl.dram.perBankRdBursts::10          193                       # Per bank write bursts (Count)
system.mem_ctrl.dram.perBankRdBursts::11          264                       # Per bank write bursts (Count)
system.mem_ctrl.dram.perBankRdBursts::12          121                       # Per bank write bursts (Count)
system.mem_ctrl.dram.perBankRdBursts::13          434                       # Per bank write bursts (Count)
system.mem_ctrl.dram.perBankRdBursts::14          306                       # Per bank write bursts (Count)
system.mem_ctrl.dram.perBankRdBursts::15          137                       # Per bank write bursts (Count)
system.mem_ctrl.dram.perBankWrBursts::0            10                       # Per bank write bursts (Count)
system.mem_ctrl.dram.perBankWrBursts::1            25                       # Per bank write bursts (Count)
system.mem_ctrl.dram.perBankWrBursts::2            16                       # Per bank write bursts (Count)
system.mem_ctrl.dram.perBankWrBursts::3            11                       # Per bank write bursts (Count)
system.mem_ctrl.dram.perBankWrBursts::4             8                       # Per bank write bursts (Count)
system.mem_ctrl.dram.perBankWrBursts::5           155                       # Per bank write bursts (Count)
system.mem_ctrl.dram.perBankWrBursts::6            13                       # Per bank write bursts (Count)
system.mem_ctrl.dram.perBankWrBursts::7           125                       # Per bank write bursts (Count)
system.mem_ctrl.dram.perBankWrBursts::8            20                       # Per bank write bursts (Count)
system.mem_ctrl.dram.perBankWrBursts::9            20                       # Per bank write bursts (Count)
system.mem_ctrl.dram.perBankWrBursts::10           24                       # Per bank write bursts (Count)
system.mem_ctrl.dram.perBankWrBursts::11           32                       # Per bank write bursts (Count)
system.mem_ctrl.dram.perBankWrBursts::12           27                       # Per bank write bursts (Count)
system.mem_ctrl.dram.perBankWrBursts::13           13                       # Per bank write bursts (Count)
system.mem_ctrl.dram.perBankWrBursts::14            2                       # Per bank write bursts (Count)
system.mem_ctrl.dram.perBankWrBursts::15            0                       # Per bank write bursts (Count)
system.mem_ctrl.dram.totQLat                 52179548                       # Total ticks spent queuing (Tick)
system.mem_ctrl.dram.totBusLat               19440000                       # Total ticks spent in databus transfers (Tick)
system.mem_ctrl.dram.totMemAccLat           125079548                       # Total ticks spent from burst creation until serviced by the DRAM (Tick)
system.mem_ctrl.dram.avgQLat                 13420.67                       # Average queueing delay per DRAM burst ((Tick/Count))
system.mem_ctrl.dram.avgBusLat                5000.00                       # Average bus latency per DRAM burst ((Tick/Count))
system.mem_ctrl.dram.avgMemAccLat            32170.67                       # Average memory access latency per DRAM burst ((Tick/Count))
system.mem_ctrl.dram.readRowHits                 2299                       # Number of row buffer hits during reads (Count)
system.mem_ctrl.dram.writeRowHits                 408                       # Number of row buffer hits during writes (Count)
system.mem_ctrl.dram.readRowHitRate             59.13                       # Row buffer hit rate for reads (Ratio)
system.mem_ctrl.dram.writeRowHitRate            81.44                       # Row buffer hit rate for writes (Ratio)
system.mem_ctrl.dram.bytesPerActivate::samples         1681                       # Bytes accessed per row activation (Byte)
system.mem_ctrl.dram.bytesPerActivate::mean   166.834027                       # Bytes accessed per row activation (Byte)
system.mem_ctrl.dram.bytesPerActivate::gmean   120.878479                       # Bytes accessed per row activation (Byte)
system.mem_ctrl.dram.bytesPerActivate::stdev   172.332933                       # Bytes accessed per row activation (Byte)
system.mem_ctrl.dram.bytesPerActivate::0-127          795     47.29%     47.29% # Bytes accessed per row activation (Byte)
system.mem_ctrl.dram.bytesPerActivate::128-255          552     32.84%     80.13% # Bytes accessed per row activation (Byte)
system.mem_ctrl.dram.bytesPerActivate::256-383          163      9.70%     89.83% # Bytes accessed per row activation (Byte)
system.mem_ctrl.dram.bytesPerActivate::384-511           72      4.28%     94.11% # Bytes accessed per row activation (Byte)
system.mem_ctrl.dram.bytesPerActivate::512-639           39      2.32%     96.43% # Bytes accessed per row activation (Byte)
system.mem_ctrl.dram.bytesPerActivate::640-767           24      1.43%     97.86% # Bytes accessed per row activation (Byte)
system.mem_ctrl.dram.bytesPerActivate::768-895            8      0.48%     98.33% # Bytes accessed per row activation (Byte)
system.mem_ctrl.dram.bytesPerActivate::896-1023            9      0.54%     98.87% # Bytes accessed per row activation (Byte)
system.mem_ctrl.dram.bytesPerActivate::1024-1151           19      1.13%    100.00% # Bytes accessed per row activation (Byte)
system.mem_ctrl.dram.bytesPerActivate::total         1681                       # Bytes accessed per row activation (Byte)
system.mem_ctrl.dram.dramBytesRead             248832                       # Total bytes read (Byte)
system.mem_ctrl.dram.dramBytesWritten           32064                       # Total bytes written (Byte)
system.mem_ctrl.dram.avgRdBW               236.772304                       # Average DRAM read bandwidth in MiBytes/s ((Byte/Second))
system.mem_ctrl.dram.avgWrBW                30.510011                       # Average DRAM write bandwidth in MiBytes/s ((Byte/Second))
system.mem_ctrl.dram.peakBW                  12800.00                       # Theoretical peak bandwidth in MiByte/s ((Byte/Second))
system.mem_ctrl.dram.busUtil                     2.09                       # Data bus utilization in percentage (Ratio)
system.mem_ctrl.dram.busUtilRead                 1.85                       # Data bus utilization in percentage for reads (Ratio)
system.mem_ctrl.dram.busUtilWrite                0.24                       # Data bus utilization in percentage for writes (Ratio)
system.mem_ctrl.dram.pageHitRate                61.68                       # Row buffer hit rate, read and write combined (Ratio)
system.mem_ctrl.dram.power_state.pwrStateResidencyTicks::UNDEFINED   1050933726                       # Cumulative time (in ticks) in various power states (Tick)
system.mem_ctrl.dram.rank0.actEnergy          6547380                       # Energy for activate commands per rank (pJ) (Joule)
system.mem_ctrl.dram.rank0.preEnergy          3480015                       # Energy for precharge commands per rank (pJ) (Joule)
system.mem_ctrl.dram.rank0.readEnergy        14037240                       # Energy for read commands per rank (pJ) (Joule)
system.mem_ctrl.dram.rank0.writeEnergy        1894860                       # Energy for write commands per rank (pJ) (Joule)
system.mem_ctrl.dram.rank0.refreshEnergy 82976400.000000                       # Energy for refresh commands per rank (pJ) (Joule)
system.mem_ctrl.dram.rank0.actBackEnergy    331152900                       # Energy for active background per rank (pJ) (Joule)
system.mem_ctrl.dram.rank0.preBackEnergy    124692960                       # Energy for precharge background per rank (pJ) (Joule)
system.mem_ctrl.dram.rank0.actPowerDownEnergy            0                       # Energy for active power-down per rank (pJ) (Joule)
system.mem_ctrl.dram.rank0.prePowerDownEnergy            0                       # Energy for precharge power-down per rank (pJ) (Joule)
system.mem_ctrl.dram.rank0.selfRefreshEnergy            0                       # Energy for self refresh per rank (pJ) (Joule)
system.mem_ctrl.dram.rank0.totalEnergy      564781755                       # Total energy per rank (pJ) (Joule)
system.mem_ctrl.dram.rank0.averagePower    537.409487                       # Core power per rank (mW) (Watt)
system.mem_ctrl.dram.rank0.totalIdleTime            0                       # Total Idle time Per DRAM Rank (Tick)
system.mem_ctrl.dram.rank0.pwrStateTime::IDLE    321342948                       # Time in different power states (Tick)
system.mem_ctrl.dram.rank0.pwrStateTime::REF     35100000                       # Time in different power states (Tick)
system.mem_ctrl.dram.rank0.pwrStateTime::SREF            0                       # Time in different power states (Tick)
system.mem_ctrl.dram.rank0.pwrStateTime::PRE_PDN            0                       # Time in different power states (Tick)
system.mem_ctrl.dram.rank0.pwrStateTime::ACT    694490778                       # Time in different power states (Tick)
system.mem_ctrl.dram.rank0.pwrStateTime::ACT_PDN            0                       # Time in different power states (Tick)
system.mem_ctrl.dram.rank1.actEnergy          5462100                       # Energy for activate commands per rank (pJ) (Joule)
system.mem_ctrl.dram.rank1.preEnergy          2899380                       # Energy for precharge commands per rank (pJ) (Joule)
system.mem_ctrl.dram.rank1.readEnergy        13730220                       # Energy for read commands per rank (pJ) (Joule)
system.mem_ctrl.dram.rank1.writeEnergy         720360                       # Energy for write commands per rank (pJ) (Joule)
system.mem_ctrl.dram.rank1.refreshEnergy 82976400.000000                       # Energy for refresh commands per rank (pJ) (Joule)
system.mem_ctrl.dram.rank1.actBackEnergy    402507210                       # Energy for active background per rank (pJ) (Joule)
system.mem_ctrl.dram.rank1.preBackEnergy     64605120                       # Energy for precharge background per rank (pJ) (Joule)
system.mem_ctrl.dram.rank1.actPowerDownEnergy            0                       # Energy for active power-down per rank (pJ) (Joule)
system.mem_ctrl.dram.rank1.prePowerDownEnergy            0                       # Energy for precharge power-down per rank (pJ) (Joule)
system.mem_ctrl.dram.rank1.selfRefreshEnergy            0                       # Energy for self refresh per rank (pJ) (Joule)
system.mem_ctrl.dram.rank1.totalEnergy      572900790                       # Total energy per rank (pJ) (Joule)
system.mem_ctrl.dram.rank1.averagePower    545.135032                       # Core power per rank (mW) (Watt)
system.mem_ctrl.dram.rank1.totalIdleTime            0                       # Total Idle time Per DRAM Rank (Tick)
system.mem_ctrl.dram.rank1.pwrStateTime::IDLE    164331550                       # Time in different power states (Tick)
system.mem_ctrl.dram.rank1.pwrStateTime::REF     35100000                       # Time in different power states (Tick)
system.mem_ctrl.dram.rank1.pwrStateTime::SREF            0                       # Time in different power states (Tick)
system.mem_ctrl.dram.rank1.pwrStateTime::PRE_PDN            0                       # Time in different power states (Tick)
system.mem_ctrl.dram.rank1.pwrStateTime::ACT    851502176                       # Time in different power states (Tick)
system.mem_ctrl.dram.rank1.pwrStateTime::ACT_PDN            0                       # Time in different power states (Tick)
system.mem_ctrl.power_state.pwrStateResidencyTicks::UNDEFINED   1050933726                       # Cumulative time (in ticks) in various power states (Tick)
system.membus.transDist::ReadResp                3879                       # Transaction distribution (Count)
system.membus.transDist::WritebackDirty           586                       # Transaction distribution (Count)
system.membus.transDist::CleanEvict              3552                       # Transaction distribution (Count)
system.membus.transDist::UpgradeReq                 1                       # Transaction distribution (Count)
system.membus.transDist::ReadExReq                260                       # Transaction distribution (Count)
system.membus.transDist::ReadExResp               260                       # Transaction distribution (Count)
system.membus.transDist::ReadSharedReq           3878                       # Transaction distribution (Count)
system.membus.pktCount_system.cpu.l1d.mem_side_port::system.mem_ctrl.port         6055                       # Packet count per connected requestor and responder (Count)
system.membus.pktCount_system.cpu.l1d.mem_side_port::total         6055                       # Packet count per connected requestor and responder (Count)
system.membus.pktCount_system.cpu.l1i.mem_side_port::system.mem_ctrl.port         6360                       # Packet count per connected requestor and responder (Count)
system.membus.pktCount_system.cpu.l1i.mem_side_port::total         6360                       # Packet count per connected requestor and responder (Count)
system.membus.pktCount::total                   12415                       # Packet count per connected requestor and responder (Count)
system.membus.pktSize_system.cpu.l1d.mem_side_port::system.mem_ctrl.port       166656                       # Cumulative packet size per connected requestor and responder (Byte)
system.membus.pktSize_system.cpu.l1d.mem_side_port::total       166656                       # Cumulative packet size per connected requestor and responder (Byte)
system.membus.pktSize_system.cpu.l1i.mem_side_port::system.mem_ctrl.port       135680                       # Cumulative packet size per connected requestor and responder (Byte)
system.membus.pktSize_system.cpu.l1i.mem_side_port::total       135680                       # Cumulative packet size per connected requestor and responder (Byte)
system.membus.pktSize::total                   302336                       # Cumulative packet size per connected requestor and responder (Byte)
system.membus.snoops                                1                       # Total snoops (Count)
system.membus.snoopTraffic                         64                       # Total snoop traffic (Byte)
system.membus.snoopFanout::samples               4139                       # Request fanout histogram (Count)
system.membus.snoopFanout::mean              0.006040                       # Request fanout histogram (Count)
system.membus.snoopFanout::stdev             0.077492                       # Request fanout histogram (Count)
system.membus.snoopFanout::underflows               0      0.00%      0.00% # Request fanout histogram (Count)
system.membus.snoopFanout::0                     4114     99.40%     99.40% # Request fanout histogram (Count)
system.membus.snoopFanout::1                       25      0.60%    100.00% # Request fanout histogram (Count)
system.membus.snoopFanout::2                        0      0.00%    100.00% # Request fanout histogram (Count)
system.membus.snoopFanout::overflows                0      0.00%    100.00% # Request fanout histogram (Count)
system.membus.snoopFanout::min_value                0                       # Request fanout histogram (Count)
system.membus.snoopFanout::max_value                1                       # Request fanout histogram (Count)
system.membus.snoopFanout::total                 4139                       # Request fanout histogram (Count)
system.membus.power_state.pwrStateResidencyTicks::UNDEFINED   1050933726                       # Cumulative time (in ticks) in various power states (Tick)
system.membus.reqLayer2.occupancy           141609793                       # Layer occupancy (ticks) (Tick)
system.membus.reqLayer2.utilization               0.1                       # Layer utilization (Ratio)
system.membus.respLayer2.occupancy          136701719                       # Layer occupancy (ticks) (Tick)
system.membus.respLayer2.utilization              0.1                       # Layer utilization (Ratio)
system.membus.respLayer3.occupancy          145049275                       # Layer occupancy (ticks) (Tick)
system.membus.respLayer3.utilization              0.1                       # Layer utilization (Ratio)
system.membus.snoop_filter.totRequests           8277                       # Total number of requests made to the snoop filter. (Count)
system.membus.snoop_filter.hitSingleRequests         4142                       # Number of requests hitting in the snoop filter with a single holder of the requested data. (Count)
system.membus.snoop_filter.hitMultiRequests           21                       # Number of requests hitting in the snoop filter with multiple (>1) holders of the requested data. (Count)
system.membus.snoop_filter.totSnoops                0                       # Total number of snoops made to the snoop filter. (Count)
system.membus.snoop_filter.hitSingleSnoops            0                       # Number of snoops hitting in the snoop filter with a single holder of the requested data. (Count)
system.membus.snoop_filter.hitMultiSnoops            0                       # Number of snoops hitting in the snoop filter with multiple (>1) holders of the requested data. (Count)
system.workload.inst.arm                            0                       # number of arm instructions executed (Count)
system.workload.inst.quiesce                        0                       # number of quiesce instructions executed (Count)

---------- End Simulation Statistics   ----------
