
---------- Begin Simulation Statistics ----------
simSeconds                                   1.024729                       # Number of seconds simulated (Second)
simTicks                                 1024729434457                       # Number of ticks simulated (Tick)
finalTick                                1024729434457                       # Number of ticks from beginning of simulation (restored from checkpoints and never reset) (Tick)
simFreq                                  1000000000000                       # The number of ticks per simulated second ((Tick/Second))
hostSeconds                                    642.50                       # Real time elapsed on the host (Second)
hostTickRate                               1594914332                       # The number of ticks simulated per host second (ticks/s) ((Tick/Second))
hostMemory                                    8648868                       # Number of bytes of host memory used (Byte)
simInsts                                    108017543                       # Number of instructions simulated (Count)
simOps                                      184503659                       # Number of ops (including micro ops) simulated (Count)
hostInstRate                                   168121                       # Simulator instruction rate (inst/s) ((Count/Second))
hostOpRate                                     287166                       # Simulator op (including micro ops) rate (op/s) ((Count/Second))
system.clk_domain.clock                         13333                       # Clock period in ticks (Tick)
system.clk_domain.voltage_domain.voltage            1                       # Voltage in Volts (Volt)
system.cpu.numCycles                         76856630                       # Number of cpu cycles simulated (Cycle)
system.cpu.cpi                               0.711520                       # CPI: cycles per instruction (core level) ((Cycle/Count))
system.cpu.ipc                               1.405442                       # IPC: instructions per cycle (core level) ((Count/Cycle))
system.cpu.numWorkItemsStarted                      0                       # Number of work items this cpu started (Count)
system.cpu.numWorkItemsCompleted                    0                       # Number of work items this cpu completed (Count)
system.cpu.instsAdded                       220591086                       # Number of instructions added to the IQ (excludes non-spec) (Count)
system.cpu.nonSpecInstsAdded                  1708810                       # Number of non-speculative instructions added to the IQ (Count)
system.cpu.instsIssued                      208315286                       # Number of instructions issued (Count)
system.cpu.squashedInstsIssued                 319362                       # Number of squashed instructions issued (Count)
system.cpu.squashedInstsExamined             37796223                       # Number of squashed instructions iterated over during squash; mainly for profiling (Count)
system.cpu.squashedOperandsExamined          68488577                       # Number of squashed operands that are examined and possibly removed from graph (Count)
system.cpu.squashedNonSpecRemoved               42033                       # Number of squashed non-spec instructions that were removed (Count)
system.cpu.numIssuedDist::samples            76800509                       # Number of insts issued each cycle (Count)
system.cpu.numIssuedDist::mean               2.712421                       # Number of insts issued each cycle (Count)
system.cpu.numIssuedDist::stdev              2.587188                       # Number of insts issued each cycle (Count)
system.cpu.numIssuedDist::underflows                0      0.00%      0.00% # Number of insts issued each cycle (Count)
system.cpu.numIssuedDist::0                  24617341     32.05%     32.05% # Number of insts issued each cycle (Count)
system.cpu.numIssuedDist::1                   8763286     11.41%     43.46% # Number of insts issued each cycle (Count)
system.cpu.numIssuedDist::2                   5888757      7.67%     51.13% # Number of insts issued each cycle (Count)
system.cpu.numIssuedDist::3                  10079272     13.12%     64.26% # Number of insts issued each cycle (Count)
system.cpu.numIssuedDist::4                   5549230      7.23%     71.48% # Number of insts issued each cycle (Count)
system.cpu.numIssuedDist::5                   9252725     12.05%     83.53% # Number of insts issued each cycle (Count)
system.cpu.numIssuedDist::6                   4110455      5.35%     88.88% # Number of insts issued each cycle (Count)
system.cpu.numIssuedDist::7                   3902149      5.08%     93.96% # Number of insts issued each cycle (Count)
system.cpu.numIssuedDist::8                   4637294      6.04%    100.00% # Number of insts issued each cycle (Count)
system.cpu.numIssuedDist::overflows                 0      0.00%    100.00% # Number of insts issued each cycle (Count)
system.cpu.numIssuedDist::min_value                 0                       # Number of insts issued each cycle (Count)
system.cpu.numIssuedDist::max_value                 8                       # Number of insts issued each cycle (Count)
system.cpu.numIssuedDist::total              76800509                       # Number of insts issued each cycle (Count)
system.cpu.statFuBusy::No_OpClass                   0      0.00%      0.00% # attempts to use FU when none available (Count)
system.cpu.statFuBusy::IntAlu                  674774      9.74%      9.74% # attempts to use FU when none available (Count)
system.cpu.statFuBusy::IntMult                      0      0.00%      9.74% # attempts to use FU when none available (Count)
system.cpu.statFuBusy::IntDiv                       0      0.00%      9.74% # attempts to use FU when none available (Count)
system.cpu.statFuBusy::FloatAdd                     0      0.00%      9.74% # attempts to use FU when none available (Count)
system.cpu.statFuBusy::FloatCmp                     0      0.00%      9.74% # attempts to use FU when none available (Count)
system.cpu.statFuBusy::FloatCvt                     0      0.00%      9.74% # attempts to use FU when none available (Count)
system.cpu.statFuBusy::FloatMult                    0      0.00%      9.74% # attempts to use FU when none available (Count)
system.cpu.statFuBusy::FloatMultAcc                 0      0.00%      9.74% # attempts to use FU when none available (Count)
system.cpu.statFuBusy::FloatDiv                     0      0.00%      9.74% # attempts to use FU when none available (Count)
system.cpu.statFuBusy::FloatMisc                    0      0.00%      9.74% # attempts to use FU when none available (Count)
system.cpu.statFuBusy::FloatSqrt                    0      0.00%      9.74% # attempts to use FU when none available (Count)
system.cpu.statFuBusy::SimdAdd                      1      0.00%      9.74% # attempts to use FU when none available (Count)
system.cpu.statFuBusy::SimdAddAcc                   0      0.00%      9.74% # attempts to use FU when none available (Count)
system.cpu.statFuBusy::SimdAlu                   1299      0.02%      9.76% # attempts to use FU when none available (Count)
system.cpu.statFuBusy::SimdCmp                      0      0.00%      9.76% # attempts to use FU when none available (Count)
system.cpu.statFuBusy::SimdCvt                    232      0.00%      9.76% # attempts to use FU when none available (Count)
system.cpu.statFuBusy::SimdMisc                    20      0.00%      9.76% # attempts to use FU when none available (Count)
system.cpu.statFuBusy::SimdMult                     0      0.00%      9.76% # attempts to use FU when none available (Count)
system.cpu.statFuBusy::SimdMultAcc                  0      0.00%      9.76% # attempts to use FU when none available (Count)
system.cpu.statFuBusy::SimdMatMultAcc               0      0.00%      9.76% # attempts to use FU when none available (Count)
system.cpu.statFuBusy::SimdShift                   22      0.00%      9.76% # attempts to use FU when none available (Count)
system.cpu.statFuBusy::SimdShiftAcc                 0      0.00%      9.76% # attempts to use FU when none available (Count)
system.cpu.statFuBusy::SimdDiv                      0      0.00%      9.76% # attempts to use FU when none available (Count)
system.cpu.statFuBusy::SimdSqrt                     0      0.00%      9.76% # attempts to use FU when none available (Count)
system.cpu.statFuBusy::SimdFloatAdd                 0      0.00%      9.76% # attempts to use FU when none available (Count)
system.cpu.statFuBusy::SimdFloatAlu                 0      0.00%      9.76% # attempts to use FU when none available (Count)
system.cpu.statFuBusy::SimdFloatCmp                 0      0.00%      9.76% # attempts to use FU when none available (Count)
system.cpu.statFuBusy::SimdFloatCvt                 0      0.00%      9.76% # attempts to use FU when none available (Count)
system.cpu.statFuBusy::SimdFloatDiv                 0      0.00%      9.76% # attempts to use FU when none available (Count)
system.cpu.statFuBusy::SimdFloatMisc                0      0.00%      9.76% # attempts to use FU when none available (Count)
system.cpu.statFuBusy::SimdFloatMult                0      0.00%      9.76% # attempts to use FU when none available (Count)
system.cpu.statFuBusy::SimdFloatMultAcc             0      0.00%      9.76% # attempts to use FU when none available (Count)
system.cpu.statFuBusy::SimdFloatMatMultAcc            0      0.00%      9.76% # attempts to use FU when none available (Count)
system.cpu.statFuBusy::SimdFloatSqrt                0      0.00%      9.76% # attempts to use FU when none available (Count)
system.cpu.statFuBusy::SimdReduceAdd                0      0.00%      9.76% # attempts to use FU when none available (Count)
system.cpu.statFuBusy::SimdReduceAlu                0      0.00%      9.76% # attempts to use FU when none available (Count)
system.cpu.statFuBusy::SimdReduceCmp                0      0.00%      9.76% # attempts to use FU when none available (Count)
system.cpu.statFuBusy::SimdFloatReduceAdd            0      0.00%      9.76% # attempts to use FU when none available (Count)
system.cpu.statFuBusy::SimdFloatReduceCmp            0      0.00%      9.76% # attempts to use FU when none available (Count)
system.cpu.statFuBusy::SimdAes                      0      0.00%      9.76% # attempts to use FU when none available (Count)
system.cpu.statFuBusy::SimdAesMix                   0      0.00%      9.76% # attempts to use FU when none available (Count)
system.cpu.statFuBusy::SimdSha1Hash                 0      0.00%      9.76% # attempts to use FU when none available (Count)
system.cpu.statFuBusy::SimdSha1Hash2                0      0.00%      9.76% # attempts to use FU when none available (Count)
system.cpu.statFuBusy::SimdSha256Hash               0      0.00%      9.76% # attempts to use FU when none available (Count)
system.cpu.statFuBusy::SimdSha256Hash2              0      0.00%      9.76% # attempts to use FU when none available (Count)
system.cpu.statFuBusy::SimdShaSigma2                0      0.00%      9.76% # attempts to use FU when none available (Count)
system.cpu.statFuBusy::SimdShaSigma3                0      0.00%      9.76% # attempts to use FU when none available (Count)
system.cpu.statFuBusy::SimdPredAlu                  0      0.00%      9.76% # attempts to use FU when none available (Count)
system.cpu.statFuBusy::Matrix                       0      0.00%      9.76% # attempts to use FU when none available (Count)
system.cpu.statFuBusy::MatrixMov                    0      0.00%      9.76% # attempts to use FU when none available (Count)
system.cpu.statFuBusy::MatrixOP                     0      0.00%      9.76% # attempts to use FU when none available (Count)
system.cpu.statFuBusy::MemRead                3251335     46.92%     56.68% # attempts to use FU when none available (Count)
system.cpu.statFuBusy::MemWrite               2999239     43.28%     99.96% # attempts to use FU when none available (Count)
system.cpu.statFuBusy::FloatMemRead              1500      0.02%     99.98% # attempts to use FU when none available (Count)
system.cpu.statFuBusy::FloatMemWrite             1213      0.02%    100.00% # attempts to use FU when none available (Count)
system.cpu.statFuBusy::IprAccess                    0      0.00%    100.00% # attempts to use FU when none available (Count)
system.cpu.statFuBusy::InstPrefetch                 0      0.00%    100.00% # attempts to use FU when none available (Count)
system.cpu.statFuBusy::SimdUnitStrideLoad            0      0.00%    100.00% # attempts to use FU when none available (Count)
system.cpu.statFuBusy::SimdUnitStrideStore            0      0.00%    100.00% # attempts to use FU when none available (Count)
system.cpu.statFuBusy::SimdUnitStrideMaskLoad            0      0.00%    100.00% # attempts to use FU when none available (Count)
system.cpu.statFuBusy::SimdUnitStrideMaskStore            0      0.00%    100.00% # attempts to use FU when none available (Count)
system.cpu.statFuBusy::SimdStridedLoad              0      0.00%    100.00% # attempts to use FU when none available (Count)
system.cpu.statFuBusy::SimdStridedStore             0      0.00%    100.00% # attempts to use FU when none available (Count)
system.cpu.statFuBusy::SimdIndexedLoad              0      0.00%    100.00% # attempts to use FU when none available (Count)
system.cpu.statFuBusy::SimdIndexedStore             0      0.00%    100.00% # attempts to use FU when none available (Count)
system.cpu.statFuBusy::SimdWholeRegisterLoad            0      0.00%    100.00% # attempts to use FU when none available (Count)
system.cpu.statFuBusy::SimdWholeRegisterStore            0      0.00%    100.00% # attempts to use FU when none available (Count)
system.cpu.statFuBusy::SimdUnitStrideFaultOnlyFirstLoad            0      0.00%    100.00% # attempts to use FU when none available (Count)
system.cpu.statFuBusy::SimdUnitStrideSegmentedLoad            0      0.00%    100.00% # attempts to use FU when none available (Count)
system.cpu.statFuBusy::SimdUnitStrideSegmentedStore            0      0.00%    100.00% # attempts to use FU when none available (Count)
system.cpu.statFuBusy::SimdExt                      0      0.00%    100.00% # attempts to use FU when none available (Count)
system.cpu.statFuBusy::SimdFloatExt                 0      0.00%    100.00% # attempts to use FU when none available (Count)
system.cpu.statFuBusy::SimdConfig                   0      0.00%    100.00% # attempts to use FU when none available (Count)
system.cpu.statIssuedInstType_0::No_OpClass      1983869      0.95%      0.95% # Number of instructions issued per FU type, per thread (Count)
system.cpu.statIssuedInstType_0::IntAlu     140650326     67.52%     68.47% # Number of instructions issued per FU type, per thread (Count)
system.cpu.statIssuedInstType_0::IntMult       777051      0.37%     68.84% # Number of instructions issued per FU type, per thread (Count)
system.cpu.statIssuedInstType_0::IntDiv        105682      0.05%     68.89% # Number of instructions issued per FU type, per thread (Count)
system.cpu.statIssuedInstType_0::FloatAdd        80993      0.04%     68.93% # Number of instructions issued per FU type, per thread (Count)
system.cpu.statIssuedInstType_0::FloatCmp            0      0.00%     68.93% # Number of instructions issued per FU type, per thread (Count)
system.cpu.statIssuedInstType_0::FloatCvt         1259      0.00%     68.93% # Number of instructions issued per FU type, per thread (Count)
system.cpu.statIssuedInstType_0::FloatMult            0      0.00%     68.93% # Number of instructions issued per FU type, per thread (Count)
system.cpu.statIssuedInstType_0::FloatMultAcc            0      0.00%     68.93% # Number of instructions issued per FU type, per thread (Count)
system.cpu.statIssuedInstType_0::FloatDiv            0      0.00%     68.93% # Number of instructions issued per FU type, per thread (Count)
system.cpu.statIssuedInstType_0::FloatMisc            0      0.00%     68.93% # Number of instructions issued per FU type, per thread (Count)
system.cpu.statIssuedInstType_0::FloatSqrt            0      0.00%     68.93% # Number of instructions issued per FU type, per thread (Count)
system.cpu.statIssuedInstType_0::SimdAdd         7432      0.00%     68.94% # Number of instructions issued per FU type, per thread (Count)
system.cpu.statIssuedInstType_0::SimdAddAcc            0      0.00%     68.94% # Number of instructions issued per FU type, per thread (Count)
system.cpu.statIssuedInstType_0::SimdAlu        76288      0.04%     68.97% # Number of instructions issued per FU type, per thread (Count)
system.cpu.statIssuedInstType_0::SimdCmp            6      0.00%     68.97% # Number of instructions issued per FU type, per thread (Count)
system.cpu.statIssuedInstType_0::SimdCvt        17079      0.01%     68.98% # Number of instructions issued per FU type, per thread (Count)
system.cpu.statIssuedInstType_0::SimdMisc       457952      0.22%     69.20% # Number of instructions issued per FU type, per thread (Count)
system.cpu.statIssuedInstType_0::SimdMult            0      0.00%     69.20% # Number of instructions issued per FU type, per thread (Count)
system.cpu.statIssuedInstType_0::SimdMultAcc            0      0.00%     69.20% # Number of instructions issued per FU type, per thread (Count)
system.cpu.statIssuedInstType_0::SimdMatMultAcc            0      0.00%     69.20% # Number of instructions issued per FU type, per thread (Count)
system.cpu.statIssuedInstType_0::SimdShift         3862      0.00%     69.20% # Number of instructions issued per FU type, per thread (Count)
system.cpu.statIssuedInstType_0::SimdShiftAcc            0      0.00%     69.20% # Number of instructions issued per FU type, per thread (Count)
system.cpu.statIssuedInstType_0::SimdDiv            0      0.00%     69.20% # Number of instructions issued per FU type, per thread (Count)
system.cpu.statIssuedInstType_0::SimdSqrt            0      0.00%     69.20% # Number of instructions issued per FU type, per thread (Count)
system.cpu.statIssuedInstType_0::SimdFloatAdd         4395      0.00%     69.21% # Number of instructions issued per FU type, per thread (Count)
system.cpu.statIssuedInstType_0::SimdFloatAlu            0      0.00%     69.21% # Number of instructions issued per FU type, per thread (Count)
system.cpu.statIssuedInstType_0::SimdFloatCmp            0      0.00%     69.21% # Number of instructions issued per FU type, per thread (Count)
system.cpu.statIssuedInstType_0::SimdFloatCvt        30396      0.01%     69.22% # Number of instructions issued per FU type, per thread (Count)
system.cpu.statIssuedInstType_0::SimdFloatDiv          795      0.00%     69.22% # Number of instructions issued per FU type, per thread (Count)
system.cpu.statIssuedInstType_0::SimdFloatMisc            0      0.00%     69.22% # Number of instructions issued per FU type, per thread (Count)
system.cpu.statIssuedInstType_0::SimdFloatMult            0      0.00%     69.22% # Number of instructions issued per FU type, per thread (Count)
system.cpu.statIssuedInstType_0::SimdFloatMultAcc            0      0.00%     69.22% # Number of instructions issued per FU type, per thread (Count)
system.cpu.statIssuedInstType_0::SimdFloatMatMultAcc            0      0.00%     69.22% # Number of instructions issued per FU type, per thread (Count)
system.cpu.statIssuedInstType_0::SimdFloatSqrt         3600      0.00%     69.22% # Number of instructions issued per FU type, per thread (Count)
system.cpu.statIssuedInstType_0::SimdReduceAdd            0      0.00%     69.22% # Number of instructions issued per FU type, per thread (Count)
system.cpu.statIssuedInstType_0::SimdReduceAlu            0      0.00%     69.22% # Number of instructions issued per FU type, per thread (Count)
system.cpu.statIssuedInstType_0::SimdReduceCmp            0      0.00%     69.22% # Number of instructions issued per FU type, per thread (Count)
system.cpu.statIssuedInstType_0::SimdFloatReduceAdd            0      0.00%     69.22% # Number of instructions issued per FU type, per thread (Count)
system.cpu.statIssuedInstType_0::SimdFloatReduceCmp            0      0.00%     69.22% # Number of instructions issued per FU type, per thread (Count)
system.cpu.statIssuedInstType_0::SimdAes            0      0.00%     69.22% # Number of instructions issued per FU type, per thread (Count)
system.cpu.statIssuedInstType_0::SimdAesMix            0      0.00%     69.22% # Number of instructions issued per FU type, per thread (Count)
system.cpu.statIssuedInstType_0::SimdSha1Hash            0      0.00%     69.22% # Number of instructions issued per FU type, per thread (Count)
system.cpu.statIssuedInstType_0::SimdSha1Hash2            0      0.00%     69.22% # Number of instructions issued per FU type, per thread (Count)
system.cpu.statIssuedInstType_0::SimdSha256Hash            0      0.00%     69.22% # Number of instructions issued per FU type, per thread (Count)
system.cpu.statIssuedInstType_0::SimdSha256Hash2            0      0.00%     69.22% # Number of instructions issued per FU type, per thread (Count)
system.cpu.statIssuedInstType_0::SimdShaSigma2            0      0.00%     69.22% # Number of instructions issued per FU type, per thread (Count)
system.cpu.statIssuedInstType_0::SimdShaSigma3            0      0.00%     69.22% # Number of instructions issued per FU type, per thread (Count)
system.cpu.statIssuedInstType_0::SimdPredAlu            0      0.00%     69.22% # Number of instructions issued per FU type, per thread (Count)
system.cpu.statIssuedInstType_0::Matrix             0      0.00%     69.22% # Number of instructions issued per FU type, per thread (Count)
system.cpu.statIssuedInstType_0::MatrixMov            0      0.00%     69.22% # Number of instructions issued per FU type, per thread (Count)
system.cpu.statIssuedInstType_0::MatrixOP            0      0.00%     69.22% # Number of instructions issued per FU type, per thread (Count)
system.cpu.statIssuedInstType_0::MemRead     43416092     20.84%     90.06% # Number of instructions issued per FU type, per thread (Count)
system.cpu.statIssuedInstType_0::MemWrite     20611519      9.89%     99.96% # Number of instructions issued per FU type, per thread (Count)
system.cpu.statIssuedInstType_0::FloatMemRead        57041      0.03%     99.99% # Number of instructions issued per FU type, per thread (Count)
system.cpu.statIssuedInstType_0::FloatMemWrite        29649      0.01%    100.00% # Number of instructions issued per FU type, per thread (Count)
system.cpu.statIssuedInstType_0::IprAccess            0      0.00%    100.00% # Number of instructions issued per FU type, per thread (Count)
system.cpu.statIssuedInstType_0::InstPrefetch            0      0.00%    100.00% # Number of instructions issued per FU type, per thread (Count)
system.cpu.statIssuedInstType_0::SimdUnitStrideLoad            0      0.00%    100.00% # Number of instructions issued per FU type, per thread (Count)
system.cpu.statIssuedInstType_0::SimdUnitStrideStore            0      0.00%    100.00% # Number of instructions issued per FU type, per thread (Count)
system.cpu.statIssuedInstType_0::SimdUnitStrideMaskLoad            0      0.00%    100.00% # Number of instructions issued per FU type, per thread (Count)
system.cpu.statIssuedInstType_0::SimdUnitStrideMaskStore            0      0.00%    100.00% # Number of instructions issued per FU type, per thread (Count)
system.cpu.statIssuedInstType_0::SimdStridedLoad            0      0.00%    100.00% # Number of instructions issued per FU type, per thread (Count)
system.cpu.statIssuedInstType_0::SimdStridedStore            0      0.00%    100.00% # Number of instructions issued per FU type, per thread (Count)
system.cpu.statIssuedInstType_0::SimdIndexedLoad            0      0.00%    100.00% # Number of instructions issued per FU type, per thread (Count)
system.cpu.statIssuedInstType_0::SimdIndexedStore            0      0.00%    100.00% # Number of instructions issued per FU type, per thread (Count)
system.cpu.statIssuedInstType_0::SimdWholeRegisterLoad            0      0.00%    100.00% # Number of instructions issued per FU type, per thread (Count)
system.cpu.statIssuedInstType_0::SimdWholeRegisterStore            0      0.00%    100.00% # Number of instructions issued per FU type, per thread (Count)
system.cpu.statIssuedInstType_0::SimdUnitStrideFaultOnlyFirstLoad            0      0.00%    100.00% # Number of instructions issued per FU type, per thread (Count)
system.cpu.statIssuedInstType_0::SimdUnitStrideSegmentedLoad            0      0.00%    100.00% # Number of instructions issued per FU type, per thread (Count)
system.cpu.statIssuedInstType_0::SimdUnitStrideSegmentedStore            0      0.00%    100.00% # Number of instructions issued per FU type, per thread (Count)
system.cpu.statIssuedInstType_0::SimdExt            0      0.00%    100.00% # Number of instructions issued per FU type, per thread (Count)
system.cpu.statIssuedInstType_0::SimdFloatExt            0      0.00%    100.00% # Number of instructions issued per FU type, per thread (Count)
system.cpu.statIssuedInstType_0::SimdConfig            0      0.00%    100.00% # Number of instructions issued per FU type, per thread (Count)
system.cpu.statIssuedInstType_0::total      208315286                       # Number of instructions issued per FU type, per thread (Count)
system.cpu.issueRate                         2.710440                       # Inst issue rate ((Count/Cycle))
system.cpu.fuBusy                             6929635                       # FU busy when requested (Count)
system.cpu.fuBusyRate                        0.033265                       # FU busy rate (busy events/executed inst) ((Count/Count))
system.cpu.intInstQueueReads                498969539                       # Number of integer instruction queue reads (Count)
system.cpu.intInstQueueWrites               259431856                       # Number of integer instruction queue writes (Count)
system.cpu.intInstQueueWakeupAccesses       203914768                       # Number of integer instruction queue wakeup accesses (Count)
system.cpu.fpInstQueueReads                   1710539                       # Number of floating instruction queue reads (Count)
system.cpu.fpInstQueueWrites                  1172174                       # Number of floating instruction queue writes (Count)
system.cpu.fpInstQueueWakeupAccesses           847066                       # Number of floating instruction queue wakeup accesses (Count)
system.cpu.vecInstQueueReads                        0                       # Number of vector instruction queue reads (Count)
system.cpu.vecInstQueueWrites                       0                       # Number of vector instruction queue writes (Count)
system.cpu.vecInstQueueWakeupAccesses               0                       # Number of vector instruction queue wakeup accesses (Count)
system.cpu.intAluAccesses                   212403944                       # Number of integer alu accesses (Count)
system.cpu.fpAluAccesses                       857108                       # Number of floating point alu accesses (Count)
system.cpu.vecAluAccesses                           0                       # Number of vector alu accesses (Count)
system.cpu.numSquashedInsts                   1400874                       # Number of squashed instructions skipped in execute (Count)
system.cpu.numSwp                                   0                       # Number of swp insts executed (Count)
system.cpu.timesIdled                           11626                       # Number of times that the entire CPU went into an idle state and unscheduled itself (Count)
system.cpu.idleCycles                           56121                       # Total number of cycles that the CPU has spent unscheduled due to idling (Cycle)
system.cpu.MemDepUnit__0.insertedLoads       45301419                       # Number of loads inserted to the mem dependence unit. (Count)
system.cpu.MemDepUnit__0.insertedStores      24311312                       # Number of stores inserted to the mem dependence unit. (Count)
system.cpu.MemDepUnit__0.conflictingLoads     13788698                       # Number of conflicting loads. (Count)
system.cpu.MemDepUnit__0.conflictingStores     11321907                       # Number of conflicting stores. (Count)
system.cpu.MemDepUnit__1.insertedLoads              0                       # Number of loads inserted to the mem dependence unit. (Count)
system.cpu.MemDepUnit__1.insertedStores             0                       # Number of stores inserted to the mem dependence unit. (Count)
system.cpu.MemDepUnit__1.conflictingLoads            0                       # Number of conflicting loads. (Count)
system.cpu.MemDepUnit__1.conflictingStores            0                       # Number of conflicting stores. (Count)
system.cpu.MemDepUnit__2.insertedLoads              0                       # Number of loads inserted to the mem dependence unit. (Count)
system.cpu.MemDepUnit__2.insertedStores             0                       # Number of stores inserted to the mem dependence unit. (Count)
system.cpu.MemDepUnit__2.conflictingLoads            0                       # Number of conflicting loads. (Count)
system.cpu.MemDepUnit__2.conflictingStores            0                       # Number of conflicting stores. (Count)
system.cpu.MemDepUnit__3.insertedLoads              0                       # Number of loads inserted to the mem dependence unit. (Count)
system.cpu.MemDepUnit__3.insertedStores             0                       # Number of stores inserted to the mem dependence unit. (Count)
system.cpu.MemDepUnit__3.conflictingLoads            0                       # Number of conflicting loads. (Count)
system.cpu.MemDepUnit__3.conflictingStores            0                       # Number of conflicting stores. (Count)
system.cpu.branchPred.lookups_0::NoBranch         2314      0.01%      0.01% # Number of BP lookups (Count)
system.cpu.branchPred.lookups_0::Return       3227598     15.12%     15.13% # Number of BP lookups (Count)
system.cpu.branchPred.lookups_0::CallDirect      3522716     16.51%     31.64% # Number of BP lookups (Count)
system.cpu.branchPred.lookups_0::CallIndirect         1346      0.01%     31.65% # Number of BP lookups (Count)
system.cpu.branchPred.lookups_0::DirectCond     14072503     65.94%     97.58% # Number of BP lookups (Count)
system.cpu.branchPred.lookups_0::DirectUncond       387344      1.81%     99.40% # Number of BP lookups (Count)
system.cpu.branchPred.lookups_0::IndirectCond            0      0.00%     99.40% # Number of BP lookups (Count)
system.cpu.branchPred.lookups_0::IndirectUncond       128809      0.60%    100.00% # Number of BP lookups (Count)
system.cpu.branchPred.lookups_0::total       21342630                       # Number of BP lookups (Count)
system.cpu.branchPred.squashes_0::NoBranch         2041      0.04%      0.04% # Number of branches that got squashed (completely removed) as an earlier branch was mispredicted. (Count)
system.cpu.branchPred.squashes_0::Return       852103     17.91%     17.95% # Number of branches that got squashed (completely removed) as an earlier branch was mispredicted. (Count)
system.cpu.branchPred.squashes_0::CallDirect      1147820     24.13%     42.08% # Number of branches that got squashed (completely removed) as an earlier branch was mispredicted. (Count)
system.cpu.branchPred.squashes_0::CallIndirect          742      0.02%     42.10% # Number of branches that got squashed (completely removed) as an earlier branch was mispredicted. (Count)
system.cpu.branchPred.squashes_0::DirectCond      2603252     54.72%     96.81% # Number of branches that got squashed (completely removed) as an earlier branch was mispredicted. (Count)
system.cpu.branchPred.squashes_0::DirectUncond       105336      2.21%     99.03% # Number of branches that got squashed (completely removed) as an earlier branch was mispredicted. (Count)
system.cpu.branchPred.squashes_0::IndirectCond            0      0.00%     99.03% # Number of branches that got squashed (completely removed) as an earlier branch was mispredicted. (Count)
system.cpu.branchPred.squashes_0::IndirectUncond        46252      0.97%    100.00% # Number of branches that got squashed (completely removed) as an earlier branch was mispredicted. (Count)
system.cpu.branchPred.squashes_0::total       4757546                       # Number of branches that got squashed (completely removed) as an earlier branch was mispredicted. (Count)
system.cpu.branchPred.corrected_0::NoBranch          484      0.24%      0.24% # Number of branches that got corrected but not yet commited. Branches get corrected by decode or after execute. Also a branch misprediction can be detected out-of-order. Therefore, a corrected branch might not end up beeing committed in case an even earlier branch was mispredicted (Count)
system.cpu.branchPred.corrected_0::Return         2053      1.00%      1.23% # Number of branches that got corrected but not yet commited. Branches get corrected by decode or after execute. Also a branch misprediction can be detected out-of-order. Therefore, a corrected branch might not end up beeing committed in case an even earlier branch was mispredicted (Count)
system.cpu.branchPred.corrected_0::CallDirect         9688      4.71%      5.95% # Number of branches that got corrected but not yet commited. Branches get corrected by decode or after execute. Also a branch misprediction can be detected out-of-order. Therefore, a corrected branch might not end up beeing committed in case an even earlier branch was mispredicted (Count)
system.cpu.branchPred.corrected_0::CallIndirect          238      0.12%      6.06% # Number of branches that got corrected but not yet commited. Branches get corrected by decode or after execute. Also a branch misprediction can be detected out-of-order. Therefore, a corrected branch might not end up beeing committed in case an even earlier branch was mispredicted (Count)
system.cpu.branchPred.corrected_0::DirectCond       188194     91.54%     97.60% # Number of branches that got corrected but not yet commited. Branches get corrected by decode or after execute. Also a branch misprediction can be detected out-of-order. Therefore, a corrected branch might not end up beeing committed in case an even earlier branch was mispredicted (Count)
system.cpu.branchPred.corrected_0::DirectUncond         2876      1.40%     99.00% # Number of branches that got corrected but not yet commited. Branches get corrected by decode or after execute. Also a branch misprediction can be detected out-of-order. Therefore, a corrected branch might not end up beeing committed in case an even earlier branch was mispredicted (Count)
system.cpu.branchPred.corrected_0::IndirectCond            0      0.00%     99.00% # Number of branches that got corrected but not yet commited. Branches get corrected by decode or after execute. Also a branch misprediction can be detected out-of-order. Therefore, a corrected branch might not end up beeing committed in case an even earlier branch was mispredicted (Count)
system.cpu.branchPred.corrected_0::IndirectUncond         2050      1.00%    100.00% # Number of branches that got corrected but not yet commited. Branches get corrected by decode or after execute. Also a branch misprediction can be detected out-of-order. Therefore, a corrected branch might not end up beeing committed in case an even earlier branch was mispredicted (Count)
system.cpu.branchPred.corrected_0::total       205583                       # Number of branches that got corrected but not yet commited. Branches get corrected by decode or after execute. Also a branch misprediction can be detected out-of-order. Therefore, a corrected branch might not end up beeing committed in case an even earlier branch was mispredicted (Count)
system.cpu.branchPred.earlyResteers_0::NoBranch            0                       # Number of branches that got redirected after decode. (Count)
system.cpu.branchPred.earlyResteers_0::Return            0                       # Number of branches that got redirected after decode. (Count)
system.cpu.branchPred.earlyResteers_0::CallDirect            0                       # Number of branches that got redirected after decode. (Count)
system.cpu.branchPred.earlyResteers_0::CallIndirect            0                       # Number of branches that got redirected after decode. (Count)
system.cpu.branchPred.earlyResteers_0::DirectCond            0                       # Number of branches that got redirected after decode. (Count)
system.cpu.branchPred.earlyResteers_0::DirectUncond            0                       # Number of branches that got redirected after decode. (Count)
system.cpu.branchPred.earlyResteers_0::IndirectCond            0                       # Number of branches that got redirected after decode. (Count)
system.cpu.branchPred.earlyResteers_0::IndirectUncond            0                       # Number of branches that got redirected after decode. (Count)
system.cpu.branchPred.earlyResteers_0::total            0                       # Number of branches that got redirected after decode. (Count)
system.cpu.branchPred.committed_0::NoBranch          273      0.00%      0.00% # Number of branches finally committed  (Count)
system.cpu.branchPred.committed_0::Return      2375494     14.32%     14.32% # Number of branches finally committed  (Count)
system.cpu.branchPred.committed_0::CallDirect      2374895     14.32%     28.64% # Number of branches finally committed  (Count)
system.cpu.branchPred.committed_0::CallIndirect          604      0.00%     28.65% # Number of branches finally committed  (Count)
system.cpu.branchPred.committed_0::DirectCond     11469251     69.15%     97.80% # Number of branches finally committed  (Count)
system.cpu.branchPred.committed_0::DirectUncond       282008      1.70%     99.50% # Number of branches finally committed  (Count)
system.cpu.branchPred.committed_0::IndirectCond            0      0.00%     99.50% # Number of branches finally committed  (Count)
system.cpu.branchPred.committed_0::IndirectUncond        82557      0.50%    100.00% # Number of branches finally committed  (Count)
system.cpu.branchPred.committed_0::total     16585082                       # Number of branches finally committed  (Count)
system.cpu.branchPred.mispredicted_0::NoBranch          273      0.15%      0.15% # Number of committed branches that were mispredicted. (Count)
system.cpu.branchPred.mispredicted_0::Return         2040      1.12%      1.27% # Number of committed branches that were mispredicted. (Count)
system.cpu.branchPred.mispredicted_0::CallDirect         8432      4.62%      5.89% # Number of committed branches that were mispredicted. (Count)
system.cpu.branchPred.mispredicted_0::CallIndirect          211      0.12%      6.01% # Number of committed branches that were mispredicted. (Count)
system.cpu.branchPred.mispredicted_0::DirectCond       167394     91.81%     97.82% # Number of committed branches that were mispredicted. (Count)
system.cpu.branchPred.mispredicted_0::DirectUncond         1983      1.09%     98.91% # Number of committed branches that were mispredicted. (Count)
system.cpu.branchPred.mispredicted_0::IndirectCond            0      0.00%     98.91% # Number of committed branches that were mispredicted. (Count)
system.cpu.branchPred.mispredicted_0::IndirectUncond         1984      1.09%    100.00% # Number of committed branches that were mispredicted. (Count)
system.cpu.branchPred.mispredicted_0::total       182317                       # Number of committed branches that were mispredicted. (Count)
system.cpu.branchPred.targetProvider_0::NoTarget      5979609     28.02%     28.02% # The component providing the target for taken branches (Count)
system.cpu.branchPred.targetProvider_0::BTB     12021310     56.33%     84.34% # The component providing the target for taken branches (Count)
system.cpu.branchPred.targetProvider_0::RAS      3227596     15.12%     99.47% # The component providing the target for taken branches (Count)
system.cpu.branchPred.targetProvider_0::Indirect       114115      0.53%    100.00% # The component providing the target for taken branches (Count)
system.cpu.branchPred.targetProvider_0::total     21342630                       # The component providing the target for taken branches (Count)
system.cpu.branchPred.targetWrong_0::NoBranch        95674     47.05%     47.05% # Number of branches where the target was incorrect or not available at prediction time. (Count)
system.cpu.branchPred.targetWrong_0::Return       104688     51.48%     98.53% # Number of branches where the target was incorrect or not available at prediction time. (Count)
system.cpu.branchPred.targetWrong_0::CallDirect         2053      1.01%     99.54% # Number of branches where the target was incorrect or not available at prediction time. (Count)
system.cpu.branchPred.targetWrong_0::CallIndirect          940      0.46%    100.00% # Number of branches where the target was incorrect or not available at prediction time. (Count)
system.cpu.branchPred.targetWrong_0::DirectCond            0      0.00%    100.00% # Number of branches where the target was incorrect or not available at prediction time. (Count)
system.cpu.branchPred.targetWrong_0::DirectUncond            0      0.00%    100.00% # Number of branches where the target was incorrect or not available at prediction time. (Count)
system.cpu.branchPred.targetWrong_0::IndirectCond            0      0.00%    100.00% # Number of branches where the target was incorrect or not available at prediction time. (Count)
system.cpu.branchPred.targetWrong_0::IndirectUncond            0      0.00%    100.00% # Number of branches where the target was incorrect or not available at prediction time. (Count)
system.cpu.branchPred.targetWrong_0::total       203355                       # Number of branches where the target was incorrect or not available at prediction time. (Count)
system.cpu.branchPred.condPredicted          14074817                       # Number of conditional branches predicted (Count)
system.cpu.branchPred.condPredictedTaken      8144085                       # Number of conditional branches predicted as taken (Count)
system.cpu.branchPred.condIncorrect            205583                       # Number of conditional branches incorrect (Count)
system.cpu.branchPred.predTakenBTBMiss          13707                       # Number of branches predicted taken but missed in BTB (Count)
system.cpu.branchPred.NotTakenMispredicted       104182                       # Number branches predicted 'not taken' but turned out to be taken (Count)
system.cpu.branchPred.TakenMispredicted        101401                       # Number branches predicted taken but are actually not taken (Count)
system.cpu.branchPred.BTBLookups             21342630                       # Number of BTB lookups (Count)
system.cpu.branchPred.BTBUpdates                99357                       # Number of BTB updates (Count)
system.cpu.branchPred.BTBHits                14172445                       # Number of BTB hits (Count)
system.cpu.branchPred.BTBHitRatio            0.664044                       # BTB Hit Ratio (Ratio)
system.cpu.branchPred.BTBMispredicted           14737                       # Number BTB mispredictions. No target found or target wrong (Count)
system.cpu.branchPred.indirectLookups          130155                       # Number of indirect predictor lookups. (Count)
system.cpu.branchPred.indirectHits             114115                       # Number of indirect target hits. (Count)
system.cpu.branchPred.indirectMisses            16040                       # Number of indirect misses. (Count)
system.cpu.branchPred.indirectMispredicted            0                       # Number of mispredicted indirect branches. (Count)
system.cpu.branchPred.btb.lookups::NoBranch         2314      0.01%      0.01% # Number of BTB lookups (Count)
system.cpu.branchPred.btb.lookups::Return      3227598     15.12%     15.13% # Number of BTB lookups (Count)
system.cpu.branchPred.btb.lookups::CallDirect      3522716     16.51%     31.64% # Number of BTB lookups (Count)
system.cpu.branchPred.btb.lookups::CallIndirect         1346      0.01%     31.65% # Number of BTB lookups (Count)
system.cpu.branchPred.btb.lookups::DirectCond     14072503     65.94%     97.58% # Number of BTB lookups (Count)
system.cpu.branchPred.btb.lookups::DirectUncond       387344      1.81%     99.40% # Number of BTB lookups (Count)
system.cpu.branchPred.btb.lookups::IndirectCond            0      0.00%     99.40% # Number of BTB lookups (Count)
system.cpu.branchPred.btb.lookups::IndirectUncond       128809      0.60%    100.00% # Number of BTB lookups (Count)
system.cpu.branchPred.btb.lookups::total     21342630                       # Number of BTB lookups (Count)
system.cpu.branchPred.btb.misses::NoBranch          398      0.01%      0.01% # Number of BTB misses (Count)
system.cpu.branchPred.btb.misses::Return      3227598     45.01%     45.02% # Number of BTB misses (Count)
system.cpu.branchPred.btb.misses::CallDirect        11997      0.17%     45.19% # Number of BTB misses (Count)
system.cpu.branchPred.btb.misses::CallIndirect         1345      0.02%     45.21% # Number of BTB misses (Count)
system.cpu.branchPred.btb.misses::DirectCond      3793180     52.90%     98.11% # Number of BTB misses (Count)
system.cpu.branchPred.btb.misses::DirectUncond         6858      0.10%     98.20% # Number of BTB misses (Count)
system.cpu.branchPred.btb.misses::IndirectCond            0      0.00%     98.20% # Number of BTB misses (Count)
system.cpu.branchPred.btb.misses::IndirectUncond       128809      1.80%    100.00% # Number of BTB misses (Count)
system.cpu.branchPred.btb.misses::total       7170185                       # Number of BTB misses (Count)
system.cpu.branchPred.btb.updates::NoBranch            0      0.00%      0.00% # Number of BTB updates (Count)
system.cpu.branchPred.btb.updates::Return            0      0.00%      0.00% # Number of BTB updates (Count)
system.cpu.branchPred.btb.updates::CallDirect         9688      9.75%      9.75% # Number of BTB updates (Count)
system.cpu.branchPred.btb.updates::CallIndirect            0      0.00%      9.75% # Number of BTB updates (Count)
system.cpu.branchPred.btb.updates::DirectCond        86793     87.35%     97.11% # Number of BTB updates (Count)
system.cpu.branchPred.btb.updates::DirectUncond         2876      2.89%    100.00% # Number of BTB updates (Count)
system.cpu.branchPred.btb.updates::IndirectCond            0      0.00%    100.00% # Number of BTB updates (Count)
system.cpu.branchPred.btb.updates::IndirectUncond            0      0.00%    100.00% # Number of BTB updates (Count)
system.cpu.branchPred.btb.updates::total        99357                       # Number of BTB updates (Count)
system.cpu.branchPred.btb.mispredict::NoBranch            0      0.00%      0.00% # Number of BTB mispredictions. No target found or target wrong. (Count)
system.cpu.branchPred.btb.mispredict::Return            0      0.00%      0.00% # Number of BTB mispredictions. No target found or target wrong. (Count)
system.cpu.branchPred.btb.mispredict::CallDirect         9688      9.75%      9.75% # Number of BTB mispredictions. No target found or target wrong. (Count)
system.cpu.branchPred.btb.mispredict::CallIndirect            0      0.00%      9.75% # Number of BTB mispredictions. No target found or target wrong. (Count)
system.cpu.branchPred.btb.mispredict::DirectCond        86793     87.35%     97.11% # Number of BTB mispredictions. No target found or target wrong. (Count)
system.cpu.branchPred.btb.mispredict::DirectUncond         2876      2.89%    100.00% # Number of BTB mispredictions. No target found or target wrong. (Count)
system.cpu.branchPred.btb.mispredict::IndirectCond            0      0.00%    100.00% # Number of BTB mispredictions. No target found or target wrong. (Count)
system.cpu.branchPred.btb.mispredict::IndirectUncond            0      0.00%    100.00% # Number of BTB mispredictions. No target found or target wrong. (Count)
system.cpu.branchPred.btb.mispredict::total        99357                       # Number of BTB mispredictions. No target found or target wrong. (Count)
system.cpu.branchPred.btb.power_state.pwrStateResidencyTicks::UNDEFINED 1024729434457                       # Cumulative time (in ticks) in various power states (Tick)
system.cpu.branchPred.indirectBranchPred.lookups       130155                       # Number of lookups (Count)
system.cpu.branchPred.indirectBranchPred.hits       114115                       # Number of hits of a tag (Count)
system.cpu.branchPred.indirectBranchPred.misses        16040                       # Number of misses (Count)
system.cpu.branchPred.indirectBranchPred.targetRecords         2288                       # Number of targets that where recorded/installed in the cache (Count)
system.cpu.branchPred.indirectBranchPred.indirectRecords       132443                       # Number of indirect branches/calls recorded in the indirect hist (Count)
system.cpu.branchPred.indirectBranchPred.speculativeOverflows            1                       # Number of times more than the allowed capacity for speculative branches/calls where in flight and destroy the path history (Count)
system.cpu.branchPred.ras.pushes              4376165                       # Number of times a PC was pushed onto the RAS (Count)
system.cpu.branchPred.ras.pops                4376160                       # Number of times a PC was poped from the RAS (Count)
system.cpu.branchPred.ras.squashes            2000665                       # Number of times the stack operation was squashed due to wrong speculation. (Count)
system.cpu.branchPred.ras.used                2375494                       # Number of times the RAS is the provider (Count)
system.cpu.branchPred.ras.correct             2373454                       # Number of times the RAS is the provider and the prediction is correct (Count)
system.cpu.branchPred.ras.incorrect              2040                       # Number of times the RAS is the provider and the prediction is wrong (Count)
system.cpu.commit.commitSquashedInsts        36996213                       # The number of squashed insts skipped by commit (Count)
system.cpu.commit.commitNonSpecStalls         1666777                       # The number of times commit has been forced to stall to communicate backwards (Count)
system.cpu.commit.branchMispredicts            191069                       # The number of times a branch was mispredicted (Count)
system.cpu.commit.numCommittedDist::samples     71681109                       # Number of insts commited each cycle (Count)
system.cpu.commit.numCommittedDist::mean     2.573951                       # Number of insts commited each cycle (Count)
system.cpu.commit.numCommittedDist::stdev     3.081469                       # Number of insts commited each cycle (Count)
system.cpu.commit.numCommittedDist::underflows            0      0.00%      0.00% # Number of insts commited each cycle (Count)
system.cpu.commit.numCommittedDist::0        29760186     41.52%     41.52% # Number of insts commited each cycle (Count)
system.cpu.commit.numCommittedDist::1         9903857     13.82%     55.33% # Number of insts commited each cycle (Count)
system.cpu.commit.numCommittedDist::2         4007357      5.59%     60.92% # Number of insts commited each cycle (Count)
system.cpu.commit.numCommittedDist::3         7498516     10.46%     71.39% # Number of insts commited each cycle (Count)
system.cpu.commit.numCommittedDist::4         3251830      4.54%     75.92% # Number of insts commited each cycle (Count)
system.cpu.commit.numCommittedDist::5         1351325      1.89%     77.81% # Number of insts commited each cycle (Count)
system.cpu.commit.numCommittedDist::6         1140839      1.59%     79.40% # Number of insts commited each cycle (Count)
system.cpu.commit.numCommittedDist::7          657031      0.92%     80.32% # Number of insts commited each cycle (Count)
system.cpu.commit.numCommittedDist::8        14110168     19.68%    100.00% # Number of insts commited each cycle (Count)
system.cpu.commit.numCommittedDist::overflows            0      0.00%    100.00% # Number of insts commited each cycle (Count)
system.cpu.commit.numCommittedDist::min_value            0                       # Number of insts commited each cycle (Count)
system.cpu.commit.numCommittedDist::max_value            8                       # Number of insts commited each cycle (Count)
system.cpu.commit.numCommittedDist::total     71681109                       # Number of insts commited each cycle (Count)
system.cpu.commit.amos                              0                       # Number of atomic instructions committed (Count)
system.cpu.commit.membars                     1110710                       # Number of memory barriers committed (Count)
system.cpu.commit.functionCalls               2375499                       # Number of function calls committed. (Count)
system.cpu.commit.committedInstType_0::No_OpClass      1668917      0.90%      0.90% # Class of committed instruction (Count)
system.cpu.commit.committedInstType_0::IntAlu    125394855     67.96%     68.87% # Class of committed instruction (Count)
system.cpu.commit.committedInstType_0::IntMult       749773      0.41%     69.27% # Class of committed instruction (Count)
system.cpu.commit.committedInstType_0::IntDiv        98324      0.05%     69.33% # Class of committed instruction (Count)
system.cpu.commit.committedInstType_0::FloatAdd        55153      0.03%     69.36% # Class of committed instruction (Count)
system.cpu.commit.committedInstType_0::FloatCmp            0      0.00%     69.36% # Class of committed instruction (Count)
system.cpu.commit.committedInstType_0::FloatCvt         1232      0.00%     69.36% # Class of committed instruction (Count)
system.cpu.commit.committedInstType_0::FloatMult            0      0.00%     69.36% # Class of committed instruction (Count)
system.cpu.commit.committedInstType_0::FloatMultAcc            0      0.00%     69.36% # Class of committed instruction (Count)
system.cpu.commit.committedInstType_0::FloatDiv            0      0.00%     69.36% # Class of committed instruction (Count)
system.cpu.commit.committedInstType_0::FloatMisc            0      0.00%     69.36% # Class of committed instruction (Count)
system.cpu.commit.committedInstType_0::FloatSqrt            0      0.00%     69.36% # Class of committed instruction (Count)
system.cpu.commit.committedInstType_0::SimdAdd         6642      0.00%     69.36% # Class of committed instruction (Count)
system.cpu.commit.committedInstType_0::SimdAddAcc            0      0.00%     69.36% # Class of committed instruction (Count)
system.cpu.commit.committedInstType_0::SimdAlu        68336      0.04%     69.40% # Class of committed instruction (Count)
system.cpu.commit.committedInstType_0::SimdCmp            6      0.00%     69.40% # Class of committed instruction (Count)
system.cpu.commit.committedInstType_0::SimdCvt        14606      0.01%     69.41% # Class of committed instruction (Count)
system.cpu.commit.committedInstType_0::SimdMisc       289247      0.16%     69.56% # Class of committed instruction (Count)
system.cpu.commit.committedInstType_0::SimdMult            0      0.00%     69.56% # Class of committed instruction (Count)
system.cpu.commit.committedInstType_0::SimdMultAcc            0      0.00%     69.56% # Class of committed instruction (Count)
system.cpu.commit.committedInstType_0::SimdMatMultAcc            0      0.00%     69.56% # Class of committed instruction (Count)
system.cpu.commit.committedInstType_0::SimdShift         1809      0.00%     69.56% # Class of committed instruction (Count)
system.cpu.commit.committedInstType_0::SimdShiftAcc            0      0.00%     69.56% # Class of committed instruction (Count)
system.cpu.commit.committedInstType_0::SimdDiv            0      0.00%     69.56% # Class of committed instruction (Count)
system.cpu.commit.committedInstType_0::SimdSqrt            0      0.00%     69.56% # Class of committed instruction (Count)
system.cpu.commit.committedInstType_0::SimdFloatAdd         4001      0.00%     69.57% # Class of committed instruction (Count)
system.cpu.commit.committedInstType_0::SimdFloatAlu            0      0.00%     69.57% # Class of committed instruction (Count)
system.cpu.commit.committedInstType_0::SimdFloatCmp            0      0.00%     69.57% # Class of committed instruction (Count)
system.cpu.commit.committedInstType_0::SimdFloatCvt        29602      0.02%     69.58% # Class of committed instruction (Count)
system.cpu.commit.committedInstType_0::SimdFloatDiv          401      0.00%     69.58% # Class of committed instruction (Count)
system.cpu.commit.committedInstType_0::SimdFloatMisc            0      0.00%     69.58% # Class of committed instruction (Count)
system.cpu.commit.committedInstType_0::SimdFloatMult            0      0.00%     69.58% # Class of committed instruction (Count)
system.cpu.commit.committedInstType_0::SimdFloatMultAcc            0      0.00%     69.58% # Class of committed instruction (Count)
system.cpu.commit.committedInstType_0::SimdFloatMatMultAcc            0      0.00%     69.58% # Class of committed instruction (Count)
system.cpu.commit.committedInstType_0::SimdFloatSqrt         3600      0.00%     69.58% # Class of committed instruction (Count)
system.cpu.commit.committedInstType_0::SimdReduceAdd            0      0.00%     69.58% # Class of committed instruction (Count)
system.cpu.commit.committedInstType_0::SimdReduceAlu            0      0.00%     69.58% # Class of committed instruction (Count)
system.cpu.commit.committedInstType_0::SimdReduceCmp            0      0.00%     69.58% # Class of committed instruction (Count)
system.cpu.commit.committedInstType_0::SimdFloatReduceAdd            0      0.00%     69.58% # Class of committed instruction (Count)
system.cpu.commit.committedInstType_0::SimdFloatReduceCmp            0      0.00%     69.58% # Class of committed instruction (Count)
system.cpu.commit.committedInstType_0::SimdAes            0      0.00%     69.58% # Class of committed instruction (Count)
system.cpu.commit.committedInstType_0::SimdAesMix            0      0.00%     69.58% # Class of committed instruction (Count)
system.cpu.commit.committedInstType_0::SimdSha1Hash            0      0.00%     69.58% # Class of committed instruction (Count)
system.cpu.commit.committedInstType_0::SimdSha1Hash2            0      0.00%     69.58% # Class of committed instruction (Count)
system.cpu.commit.committedInstType_0::SimdSha256Hash            0      0.00%     69.58% # Class of committed instruction (Count)
system.cpu.commit.committedInstType_0::SimdSha256Hash2            0      0.00%     69.58% # Class of committed instruction (Count)
system.cpu.commit.committedInstType_0::SimdShaSigma2            0      0.00%     69.58% # Class of committed instruction (Count)
system.cpu.commit.committedInstType_0::SimdShaSigma3            0      0.00%     69.58% # Class of committed instruction (Count)
system.cpu.commit.committedInstType_0::SimdPredAlu            0      0.00%     69.58% # Class of committed instruction (Count)
system.cpu.commit.committedInstType_0::Matrix            0      0.00%     69.58% # Class of committed instruction (Count)
system.cpu.commit.committedInstType_0::MatrixMov            0      0.00%     69.58% # Class of committed instruction (Count)
system.cpu.commit.committedInstType_0::MatrixOP            0      0.00%     69.58% # Class of committed instruction (Count)
system.cpu.commit.committedInstType_0::MemRead     37708890     20.44%     90.02% # Class of committed instruction (Count)
system.cpu.commit.committedInstType_0::MemWrite     18332770      9.94%     99.96% # Class of committed instruction (Count)
system.cpu.commit.committedInstType_0::FloatMemRead        47009      0.03%     99.98% # Class of committed instruction (Count)
system.cpu.commit.committedInstType_0::FloatMemWrite        28486      0.02%    100.00% # Class of committed instruction (Count)
system.cpu.commit.committedInstType_0::IprAccess            0      0.00%    100.00% # Class of committed instruction (Count)
system.cpu.commit.committedInstType_0::InstPrefetch            0      0.00%    100.00% # Class of committed instruction (Count)
system.cpu.commit.committedInstType_0::SimdUnitStrideLoad            0      0.00%    100.00% # Class of committed instruction (Count)
system.cpu.commit.committedInstType_0::SimdUnitStrideStore            0      0.00%    100.00% # Class of committed instruction (Count)
system.cpu.commit.committedInstType_0::SimdUnitStrideMaskLoad            0      0.00%    100.00% # Class of committed instruction (Count)
system.cpu.commit.committedInstType_0::SimdUnitStrideMaskStore            0      0.00%    100.00% # Class of committed instruction (Count)
system.cpu.commit.committedInstType_0::SimdStridedLoad            0      0.00%    100.00% # Class of committed instruction (Count)
system.cpu.commit.committedInstType_0::SimdStridedStore            0      0.00%    100.00% # Class of committed instruction (Count)
system.cpu.commit.committedInstType_0::SimdIndexedLoad            0      0.00%    100.00% # Class of committed instruction (Count)
system.cpu.commit.committedInstType_0::SimdIndexedStore            0      0.00%    100.00% # Class of committed instruction (Count)
system.cpu.commit.committedInstType_0::SimdWholeRegisterLoad            0      0.00%    100.00% # Class of committed instruction (Count)
system.cpu.commit.committedInstType_0::SimdWholeRegisterStore            0      0.00%    100.00% # Class of committed instruction (Count)
system.cpu.commit.committedInstType_0::SimdUnitStrideFaultOnlyFirstLoad            0      0.00%    100.00% # Class of committed instruction (Count)
system.cpu.commit.committedInstType_0::SimdUnitStrideSegmentedLoad            0      0.00%    100.00% # Class of committed instruction (Count)
system.cpu.commit.committedInstType_0::SimdUnitStrideSegmentedStore            0      0.00%    100.00% # Class of committed instruction (Count)
system.cpu.commit.committedInstType_0::SimdExt            0      0.00%    100.00% # Class of committed instruction (Count)
system.cpu.commit.committedInstType_0::SimdFloatExt            0      0.00%    100.00% # Class of committed instruction (Count)
system.cpu.commit.committedInstType_0::SimdConfig            0      0.00%    100.00% # Class of committed instruction (Count)
system.cpu.commit.committedInstType_0::total    184503659                       # Class of committed instruction (Count)
system.cpu.commit.commitEligibleSamples      14110168                       # number cycles where commit BW limit reached (Cycle)
system.cpu.commitStats0.numInsts            108017543                       # Number of instructions committed (thread level) (Count)
system.cpu.commitStats0.numOps              184503659                       # Number of ops (including micro ops) committed (thread level) (Count)
system.cpu.commitStats0.numInstsNotNOP      108017543                       # Number of instructions committed excluding NOPs or prefetches (Count)
system.cpu.commitStats0.numOpsNotNOP        184503659                       # Number of Ops (including micro ops) Simulated (Count)
system.cpu.commitStats0.cpi                  0.711520                       # CPI: cycles per instruction (thread level) ((Cycle/Count))
system.cpu.commitStats0.ipc                  1.405442                       # IPC: instructions per cycle (thread level) ((Count/Cycle))
system.cpu.commitStats0.numMemRefs           56117155                       # Number of memory references committed (Count)
system.cpu.commitStats0.numFpInsts             608638                       # Number of float instructions (Count)
system.cpu.commitStats0.numIntInsts         181258934                       # Number of integer instructions (Count)
system.cpu.commitStats0.numLoadInsts         37755899                       # Number of load instructions (Count)
system.cpu.commitStats0.numStoreInsts        18361256                       # Number of store instructions (Count)
system.cpu.commitStats0.numVecInsts                 0                       # Number of vector instructions (Count)
system.cpu.commitStats0.committedInstType::No_OpClass      1668917      0.90%      0.90% # Class of committed instruction. (Count)
system.cpu.commitStats0.committedInstType::IntAlu    125394855     67.96%     68.87% # Class of committed instruction. (Count)
system.cpu.commitStats0.committedInstType::IntMult       749773      0.41%     69.27% # Class of committed instruction. (Count)
system.cpu.commitStats0.committedInstType::IntDiv        98324      0.05%     69.33% # Class of committed instruction. (Count)
system.cpu.commitStats0.committedInstType::FloatAdd        55153      0.03%     69.36% # Class of committed instruction. (Count)
system.cpu.commitStats0.committedInstType::FloatCmp            0      0.00%     69.36% # Class of committed instruction. (Count)
system.cpu.commitStats0.committedInstType::FloatCvt         1232      0.00%     69.36% # Class of committed instruction. (Count)
system.cpu.commitStats0.committedInstType::FloatMult            0      0.00%     69.36% # Class of committed instruction. (Count)
system.cpu.commitStats0.committedInstType::FloatMultAcc            0      0.00%     69.36% # Class of committed instruction. (Count)
system.cpu.commitStats0.committedInstType::FloatDiv            0      0.00%     69.36% # Class of committed instruction. (Count)
system.cpu.commitStats0.committedInstType::FloatMisc            0      0.00%     69.36% # Class of committed instruction. (Count)
system.cpu.commitStats0.committedInstType::FloatSqrt            0      0.00%     69.36% # Class of committed instruction. (Count)
system.cpu.commitStats0.committedInstType::SimdAdd         6642      0.00%     69.36% # Class of committed instruction. (Count)
system.cpu.commitStats0.committedInstType::SimdAddAcc            0      0.00%     69.36% # Class of committed instruction. (Count)
system.cpu.commitStats0.committedInstType::SimdAlu        68336      0.04%     69.40% # Class of committed instruction. (Count)
system.cpu.commitStats0.committedInstType::SimdCmp            6      0.00%     69.40% # Class of committed instruction. (Count)
system.cpu.commitStats0.committedInstType::SimdCvt        14606      0.01%     69.41% # Class of committed instruction. (Count)
system.cpu.commitStats0.committedInstType::SimdMisc       289247      0.16%     69.56% # Class of committed instruction. (Count)
system.cpu.commitStats0.committedInstType::SimdMult            0      0.00%     69.56% # Class of committed instruction. (Count)
system.cpu.commitStats0.committedInstType::SimdMultAcc            0      0.00%     69.56% # Class of committed instruction. (Count)
system.cpu.commitStats0.committedInstType::SimdMatMultAcc            0      0.00%     69.56% # Class of committed instruction. (Count)
system.cpu.commitStats0.committedInstType::SimdShift         1809      0.00%     69.56% # Class of committed instruction. (Count)
system.cpu.commitStats0.committedInstType::SimdShiftAcc            0      0.00%     69.56% # Class of committed instruction. (Count)
system.cpu.commitStats0.committedInstType::SimdDiv            0      0.00%     69.56% # Class of committed instruction. (Count)
system.cpu.commitStats0.committedInstType::SimdSqrt            0      0.00%     69.56% # Class of committed instruction. (Count)
system.cpu.commitStats0.committedInstType::SimdFloatAdd         4001      0.00%     69.57% # Class of committed instruction. (Count)
system.cpu.commitStats0.committedInstType::SimdFloatAlu            0      0.00%     69.57% # Class of committed instruction. (Count)
system.cpu.commitStats0.committedInstType::SimdFloatCmp            0      0.00%     69.57% # Class of committed instruction. (Count)
system.cpu.commitStats0.committedInstType::SimdFloatCvt        29602      0.02%     69.58% # Class of committed instruction. (Count)
system.cpu.commitStats0.committedInstType::SimdFloatDiv          401      0.00%     69.58% # Class of committed instruction. (Count)
system.cpu.commitStats0.committedInstType::SimdFloatMisc            0      0.00%     69.58% # Class of committed instruction. (Count)
system.cpu.commitStats0.committedInstType::SimdFloatMult            0      0.00%     69.58% # Class of committed instruction. (Count)
system.cpu.commitStats0.committedInstType::SimdFloatMultAcc            0      0.00%     69.58% # Class of committed instruction. (Count)
system.cpu.commitStats0.committedInstType::SimdFloatMatMultAcc            0      0.00%     69.58% # Class of committed instruction. (Count)
system.cpu.commitStats0.committedInstType::SimdFloatSqrt         3600      0.00%     69.58% # Class of committed instruction. (Count)
system.cpu.commitStats0.committedInstType::SimdReduceAdd            0      0.00%     69.58% # Class of committed instruction. (Count)
system.cpu.commitStats0.committedInstType::SimdReduceAlu            0      0.00%     69.58% # Class of committed instruction. (Count)
system.cpu.commitStats0.committedInstType::SimdReduceCmp            0      0.00%     69.58% # Class of committed instruction. (Count)
system.cpu.commitStats0.committedInstType::SimdFloatReduceAdd            0      0.00%     69.58% # Class of committed instruction. (Count)
system.cpu.commitStats0.committedInstType::SimdFloatReduceCmp            0      0.00%     69.58% # Class of committed instruction. (Count)
system.cpu.commitStats0.committedInstType::SimdAes            0      0.00%     69.58% # Class of committed instruction. (Count)
system.cpu.commitStats0.committedInstType::SimdAesMix            0      0.00%     69.58% # Class of committed instruction. (Count)
system.cpu.commitStats0.committedInstType::SimdSha1Hash            0      0.00%     69.58% # Class of committed instruction. (Count)
system.cpu.commitStats0.committedInstType::SimdSha1Hash2            0      0.00%     69.58% # Class of committed instruction. (Count)
system.cpu.commitStats0.committedInstType::SimdSha256Hash            0      0.00%     69.58% # Class of committed instruction. (Count)
system.cpu.commitStats0.committedInstType::SimdSha256Hash2            0      0.00%     69.58% # Class of committed instruction. (Count)
system.cpu.commitStats0.committedInstType::SimdShaSigma2            0      0.00%     69.58% # Class of committed instruction. (Count)
system.cpu.commitStats0.committedInstType::SimdShaSigma3            0      0.00%     69.58% # Class of committed instruction. (Count)
system.cpu.commitStats0.committedInstType::SimdPredAlu            0      0.00%     69.58% # Class of committed instruction. (Count)
system.cpu.commitStats0.committedInstType::Matrix            0      0.00%     69.58% # Class of committed instruction. (Count)
system.cpu.commitStats0.committedInstType::MatrixMov            0      0.00%     69.58% # Class of committed instruction. (Count)
system.cpu.commitStats0.committedInstType::MatrixOP            0      0.00%     69.58% # Class of committed instruction. (Count)
system.cpu.commitStats0.committedInstType::MemRead     37708890     20.44%     90.02% # Class of committed instruction. (Count)
system.cpu.commitStats0.committedInstType::MemWrite     18332770      9.94%     99.96% # Class of committed instruction. (Count)
system.cpu.commitStats0.committedInstType::FloatMemRead        47009      0.03%     99.98% # Class of committed instruction. (Count)
system.cpu.commitStats0.committedInstType::FloatMemWrite        28486      0.02%    100.00% # Class of committed instruction. (Count)
system.cpu.commitStats0.committedInstType::IprAccess            0      0.00%    100.00% # Class of committed instruction. (Count)
system.cpu.commitStats0.committedInstType::InstPrefetch            0      0.00%    100.00% # Class of committed instruction. (Count)
system.cpu.commitStats0.committedInstType::SimdUnitStrideLoad            0      0.00%    100.00% # Class of committed instruction. (Count)
system.cpu.commitStats0.committedInstType::SimdUnitStrideStore            0      0.00%    100.00% # Class of committed instruction. (Count)
system.cpu.commitStats0.committedInstType::SimdUnitStrideMaskLoad            0      0.00%    100.00% # Class of committed instruction. (Count)
system.cpu.commitStats0.committedInstType::SimdUnitStrideMaskStore            0      0.00%    100.00% # Class of committed instruction. (Count)
system.cpu.commitStats0.committedInstType::SimdStridedLoad            0      0.00%    100.00% # Class of committed instruction. (Count)
system.cpu.commitStats0.committedInstType::SimdStridedStore            0      0.00%    100.00% # Class of committed instruction. (Count)
system.cpu.commitStats0.committedInstType::SimdIndexedLoad            0      0.00%    100.00% # Class of committed instruction. (Count)
system.cpu.commitStats0.committedInstType::SimdIndexedStore            0      0.00%    100.00% # Class of committed instruction. (Count)
system.cpu.commitStats0.committedInstType::SimdWholeRegisterLoad            0      0.00%    100.00% # Class of committed instruction. (Count)
system.cpu.commitStats0.committedInstType::SimdWholeRegisterStore            0      0.00%    100.00% # Class of committed instruction. (Count)
system.cpu.commitStats0.committedInstType::SimdUnitStrideFaultOnlyFirstLoad            0      0.00%    100.00% # Class of committed instruction. (Count)
system.cpu.commitStats0.committedInstType::SimdUnitStrideSegmentedLoad            0      0.00%    100.00% # Class of committed instruction. (Count)
system.cpu.commitStats0.committedInstType::SimdUnitStrideSegmentedStore            0      0.00%    100.00% # Class of committed instruction. (Count)
system.cpu.commitStats0.committedInstType::SimdExt            0      0.00%    100.00% # Class of committed instruction. (Count)
system.cpu.commitStats0.committedInstType::SimdFloatExt            0      0.00%    100.00% # Class of committed instruction. (Count)
system.cpu.commitStats0.committedInstType::SimdConfig            0      0.00%    100.00% # Class of committed instruction. (Count)
system.cpu.commitStats0.committedInstType::total    184503659                       # Class of committed instruction. (Count)
system.cpu.commitStats0.committedControl::IsControl     16585082                       # Class of control type instructions committed (Count)
system.cpu.commitStats0.committedControl::IsDirectControl     14126154                       # Class of control type instructions committed (Count)
system.cpu.commitStats0.committedControl::IsIndirectControl      2458655                       # Class of control type instructions committed (Count)
system.cpu.commitStats0.committedControl::IsCondControl     11469251                       # Class of control type instructions committed (Count)
system.cpu.commitStats0.committedControl::IsUncondControl      5115558                       # Class of control type instructions committed (Count)
system.cpu.commitStats0.committedControl::IsCall      2375499                       # Class of control type instructions committed (Count)
system.cpu.commitStats0.committedControl::IsReturn      2375494                       # Class of control type instructions committed (Count)
system.cpu.decode.idleCycles                 12235883                       # Number of cycles decode is idle (Cycle)
system.cpu.decode.blockedCycles              32995121                       # Number of cycles decode is blocked (Cycle)
system.cpu.decode.runCycles                  20949797                       # Number of cycles decode is running (Cycle)
system.cpu.decode.unblockCycles               9977834                       # Number of cycles decode is unblocking (Cycle)
system.cpu.decode.squashCycles                 641874                       # Number of cycles decode is squashing (Cycle)
system.cpu.decode.branchResolved             11528613                       # Number of times decode resolved a branch (Count)
system.cpu.decode.branchMispred                 14971                       # Number of times decode detected a branch misprediction (Count)
system.cpu.decode.decodedInsts              230101711                       # Number of instructions handled by decode (Count)
system.cpu.decode.squashedInsts                 72923                       # Number of squashed instructions handled by decode (Count)
system.cpu.executeStats0.numInsts           206914412                       # Number of executed instructions (Count)
system.cpu.executeStats0.numNop                     0                       # Number of nop insts executed (Count)
system.cpu.executeStats0.numBranches         18344788                       # Number of branches executed (Count)
system.cpu.executeStats0.numLoadInsts        43008374                       # Number of load instructions executed (Count)
system.cpu.executeStats0.numStoreInsts       20118654                       # Number of stores executed (Count)
system.cpu.executeStats0.instRate            2.692213                       # Inst execution rate ((Count/Cycle))
system.cpu.executeStats0.numCCRegReads       73003827                       # Number of times the CC registers were read (Count)
system.cpu.executeStats0.numCCRegWrites      51894593                       # Number of times the CC registers were written (Count)
system.cpu.executeStats0.numFpRegReads        1418173                       # Number of times the floating registers were read (Count)
system.cpu.executeStats0.numFpRegWrites        751544                       # Number of times the floating registers were written (Count)
system.cpu.executeStats0.numIntRegReads     242749390                       # Number of times the integer registers were read (Count)
system.cpu.executeStats0.numIntRegWrites    152722304                       # Number of times the integer registers were written (Count)
system.cpu.executeStats0.numMemRefs          63127028                       # Number of memory refs (Count)
system.cpu.executeStats0.numMiscRegReads     98356679                       # Number of times the Misc registers were read (Count)
system.cpu.executeStats0.numMiscRegWrites          693                       # Number of times the Misc registers were written (Count)
system.cpu.executeStats0.numVecAluAccesses            0                       # Number of vector alu accesses (Count)
system.cpu.executeStats0.numDiscardedOps            0                       # Number of ops (including micro ops) which were discarded before commit (Count)
system.cpu.fetch.predictedBranches           15363021                       # Number of branches that fetch has predicted taken (Count)
system.cpu.fetch.cycles                      68752104                       # Number of cycles fetch has run and was not squashing or blocked (Cycle)
system.cpu.fetch.squashCycles                 1313132                       # Number of cycles fetch has spent squashing (Cycle)
system.cpu.fetch.miscStallCycles                  226                       # Number of cycles fetch has spent waiting on interrupts, or bad addresses, or out of MSHRs (Cycle)
system.cpu.fetch.pendingTrapStallCycles          2155                       # Number of stall cycles due to pending traps (Cycle)
system.cpu.fetch.cacheLines                  17620886                       # Number of cache lines fetched (Count)
[...]
system.mem_ctrl.dram.bwRead::total          328206460                       # Total read bandwidth from this memory ((Byte/Second))
system.mem_ctrl.dram.bwInstRead::cpu.inst    166113851                       # Instruction read bandwidth from this memory ((Byte/Second))
system.mem_ctrl.dram.bwInstRead::total      166113851                       # Instruction read bandwidth from this memory ((Byte/Second))
system.mem_ctrl.dram.bwWrite::writebacks     44891683                       # Write bandwidth from this memory ((Byte/Second))
system.mem_ctrl.dram.bwWrite::total          44891683                       # Write bandwidth from this memory ((Byte/Second))
system.mem_ctrl.dram.bwTotal::writebacks     44891683                       # Total bandwidth to/from this memory ((Byte/Second))
system.mem_ctrl.dram.bwTotal::cpu.inst      166113851                       # Total bandwidth to/from this memory ((Byte/Second))
system.mem_ctrl.dram.bwTotal::cpu.data      162092609                       # Total bandwidth to/from this memory ((Byte/Second))
system.mem_ctrl.dram.bwTotal::total         373098143                       # Total bandwidth to/from this memory ((Byte/Second))
system.mem_ctrl.dram.readBursts                  4178                       # Number of DRAM read bursts (Count)
system.mem_ctrl.dram.writeBursts                  482                       # Number of DRAM write bursts (Count)
system.mem_ctrl.dram.perBankRdBursts::0           337                       # Per bank write bursts (Count)
system.mem_ctrl.dram.perBankRdBursts::1           394                       # Per bank write bursts (Count)
system.mem_ctrl.dram.perBankRdBursts::2           143                       # Per bank write bursts (Count)
system.mem_ctrl.dram.perBankRdBursts::3           279                       # Per bank write bursts (Count)
system.mem_ctrl.dram.perBankRdBursts::4           360                       # Per bank write bursts (Count)
system.mem_ctrl.dram.perBankRdBursts::5           246                       # Per bank write bursts (Count)
system.mem_ctrl.dram.perBankRdBursts::6           240                       # Per bank write bursts (Count)
system.mem_ctrl.dram.perBankRdBursts::7           152                       # Per bank write bursts (Count)
system.mem_ctrl.dram.perBankRdBursts::8           694                       # Per bank write bursts (Count)
system.mem_ctrl.dram.perBankRdBursts::9           182                       # Per bank write bursts (Count)
system.mem_ctrl.dram.perBankRdBursts::10          179                       # Per bank write bursts (Count)
system.mem_ctrl.dram.perBankRdBursts::11          169                       # Per bank write bursts (Count)
system.mem_ctrl.dram.perBankRdBursts::12          137                       # Per bank write bursts (Count)
system.mem_ctrl.dram.perBankRdBursts::13          153                       # Per bank write bursts (Count)
system.mem_ctrl.dram.perBankRdBursts::14          155                       # Per bank write bursts (Count)
system.mem_ctrl.dram.perBankRdBursts::15          358                       # Per bank write bursts (Count)
system.mem_ctrl.dram.perBankWrBursts::0           225                       # Per bank write bursts (Count)
system.mem_ctrl.dram.perBankWrBursts::1            42                       # Per bank write bursts (Count)
system.mem_ctrl.dram.perBankWrBursts::2             0                       # Per bank write bursts (Count)
system.mem_ctrl.dram.perBankWrBursts::3            39                       # Per bank write bursts (Count)
system.mem_ctrl.dram.perBankWrBursts::4            48                       # Per bank write bursts (Count)
system.mem_ctrl.dram.perBankWrBursts::5            16                       # Per bank write bursts (Count)
system.mem_ctrl.dram.perBankWrBursts::6             6                       # Per bank write bursts (Count)
system.mem_ctrl.dram.perBankWrBursts::7             1                       # Per bank write bursts (Count)
system.mem_ctrl.dram.perBankWrBursts::8            32                       # Per bank write bursts (Count)
system.mem_ctrl.dram.perBankWrBursts::9             1                       # Per bank write bursts (Count)
system.mem_ctrl.dram.perBankWrBursts::10           11                       # Per bank write bursts (Count)
system.mem_ctrl.dram.perBankWrBursts::11            9                       # Per bank write bursts (Count)
system.mem_ctrl.dram.perBankWrBursts::12            7                       # Per bank write bursts (Count)
system.mem_ctrl.dram.perBankWrBursts::13           13                       # Per bank write bursts (Count)
system.mem_ctrl.dram.perBankWrBursts::14           13                       # Per bank write bursts (Count)
system.mem_ctrl.dram.perBankWrBursts::15           19                       # Per bank write bursts (Count)
system.mem_ctrl.dram.totQLat                 57223566                       # Total ticks spent queuing (Tick)
system.mem_ctrl.dram.totBusLat               20890000                       # Total ticks spent in databus transfers (Tick)
system.mem_ctrl.dram.totMemAccLat           135561066                       # Total ticks spent from burst creation until serviced by the DRAM (Tick)
system.mem_ctrl.dram.avgQLat                 13696.40                       # Average queueing delay per DRAM burst ((Tick/Count))
system.mem_ctrl.dram.avgBusLat                5000.00                       # Average bus latency per DRAM burst ((Tick/Count))
system.mem_ctrl.dram.avgMemAccLat            32446.40                       # Average memory access latency per DRAM burst ((Tick/Count))
system.mem_ctrl.dram.readRowHits                 2453                       # Number of row buffer hits during reads (Count)
system.mem_ctrl.dram.writeRowHits                 370                       # Number of row buffer hits during writes (Count)
system.mem_ctrl.dram.readRowHitRate             58.71                       # Row buffer hit rate for reads (Ratio)
system.mem_ctrl.dram.writeRowHitRate            76.76                       # Row buffer hit rate for writes (Ratio)
system.mem_ctrl.dram.bytesPerActivate::samples         1833                       # Bytes accessed per row activation (Byte)
system.mem_ctrl.dram.bytesPerActivate::mean   162.426623                       # Bytes accessed per row activation (Byte)
system.mem_ctrl.dram.bytesPerActivate::gmean   118.460860                       # Bytes accessed per row activation (Byte)
system.mem_ctrl.dram.bytesPerActivate::stdev   168.053157                       # Bytes accessed per row activation (Byte)
system.mem_ctrl.dram.bytesPerActivate::0-127          889     48.50%     48.50% # Bytes accessed per row activation (Byte)
system.mem_ctrl.dram.bytesPerActivate::128-255          593     32.35%     80.85% # Bytes accessed per row activation (Byte)
system.mem_ctrl.dram.bytesPerActivate::256-383          188     10.26%     91.11% # Bytes accessed per row activation (Byte)
system.mem_ctrl.dram.bytesPerActivate::384-511           68      3.71%     94.82% # Bytes accessed per row activation (Byte)
system.mem_ctrl.dram.bytesPerActivate::512-639           31      1.69%     96.51% # Bytes accessed per row activation (Byte)
system.mem_ctrl.dram.bytesPerActivate::640-767           23      1.25%     97.76% # Bytes accessed per row activation (Byte)
system.mem_ctrl.dram.bytesPerActivate::768-895           11      0.60%     98.36% # Bytes accessed per row activation (Byte)
system.mem_ctrl.dram.bytesPerActivate::896-1023           15      0.82%     99.18% # Bytes accessed per row activation (Byte)
system.mem_ctrl.dram.bytesPerActivate::1024-1151           15      0.82%    100.00% # Bytes accessed per row activation (Byte)
system.mem_ctrl.dram.bytesPerActivate::total         1833                       # Bytes accessed per row activation (Byte)
system.mem_ctrl.dram.dramBytesRead             267392                       # Total bytes read (Byte)
system.mem_ctrl.dram.dramBytesWritten           30848                       # Total bytes written (Byte)
system.mem_ctrl.dram.avgRdBW               305.468164                       # Average DRAM read bandwidth in MiBytes/s ((Byte/Second))
system.mem_ctrl.dram.avgWrBW                35.240703                       # Average DRAM write bandwidth in MiBytes/s ((Byte/Second))
system.mem_ctrl.dram.peakBW                  12800.00                       # Theoretical peak bandwidth in MiByte/s ((Byte/Second))
system.mem_ctrl.dram.busUtil                     2.66                       # Data bus utilization in percentage (Ratio)
system.mem_ctrl.dram.busUtilRead                 2.39                       # Data bus utilization in percentage for reads (Ratio)
system.mem_ctrl.dram.busUtilWrite                0.28                       # Data bus utilization in percentage for writes (Ratio)
system.mem_ctrl.dram.pageHitRate                60.58                       # Row buffer hit rate, read and write combined (Ratio)
system.mem_ctrl.dram.power_state.pwrStateResidencyTicks::UNDEFINED    875351449                       # Cumulative time (in ticks) in various power states (Tick)
system.mem_ctrl.dram.rank0.actEnergy          6618780                       # Energy for activate commands per rank (pJ) (Joule)
system.mem_ctrl.dram.rank0.preEnergy          3514170                       # Energy for precharge commands per rank (pJ) (Joule)
system.mem_ctrl.dram.rank0.readEnergy        15358140                       # Energy for read commands per rank (pJ) (Joule)
system.mem_ctrl.dram.rank0.writeEnergy        1967940                       # Energy for write commands per rank (pJ) (Joule)
system.mem_ctrl.dram.rank0.refreshEnergy 68839680.000000                       # Energy for refresh commands per rank (pJ) (Joule)
system.mem_ctrl.dram.rank0.actBackEnergy    367260690                       # Energy for active background per rank (pJ) (Joule)
system.mem_ctrl.dram.rank0.preBackEnergy     26776320                       # Energy for precharge background per rank (pJ) (Joule)
system.mem_ctrl.dram.rank0.actPowerDownEnergy            0                       # Energy for active power-down per rank (pJ) (Joule)
system.mem_ctrl.dram.rank0.prePowerDownEnergy            0                       # Energy for precharge power-down per rank (pJ) (Joule)
system.mem_ctrl.dram.rank0.selfRefreshEnergy            0                       # Energy for self refresh per rank (pJ) (Joule)
system.mem_ctrl.dram.rank0.totalEnergy      490335720                       # Total energy per rank (pJ) (Joule)
system.mem_ctrl.dram.rank0.averagePower    560.158689                       # Core power per rank (mW) (Watt)
system.mem_ctrl.dram.rank0.totalIdleTime            0                       # Total Idle time Per DRAM Rank (Tick)
system.mem_ctrl.dram.rank0.pwrStateTime::IDLE     66437067                       # Time in different power states (Tick)
system.mem_ctrl.dram.rank0.pwrStateTime::REF     29359890                       # Time in different power states (Tick)
system.mem_ctrl.dram.rank0.pwrStateTime::SREF            0                       # Time in different power states (Tick)
system.mem_ctrl.dram.rank0.pwrStateTime::PRE_PDN            0                       # Time in different power states (Tick)
system.mem_ctrl.dram.rank0.pwrStateTime::ACT    779554492                       # Time in different power states (Tick)
system.mem_ctrl.dram.rank0.pwrStateTime::ACT_PDN            0                       # Time in different power states (Tick)
system.mem_ctrl.dram.rank1.actEnergy          6497400                       # Energy for activate commands per rank (pJ) (Joule)
system.mem_ctrl.dram.rank1.preEnergy          3442065                       # Energy for precharge commands per rank (pJ) (Joule)
system.mem_ctrl.dram.rank1.readEnergy        14472780                       # Energy for read commands per rank (pJ) (Joule)
system.mem_ctrl.dram.rank1.writeEnergy         548100                       # Energy for write commands per rank (pJ) (Joule)
system.mem_ctrl.dram.rank1.refreshEnergy 68839680.000000                       # Energy for refresh commands per rank (pJ) (Joule)
system.mem_ctrl.dram.rank1.actBackEnergy    340953480                       # Energy for active background per rank (pJ) (Joule)
system.mem_ctrl.dram.rank1.preBackEnergy     48929760                       # Energy for precharge background per rank (pJ) (Joule)
system.mem_ctrl.dram.rank1.actPowerDownEnergy            0                       # Energy for active power-down per rank (pJ) (Joule)
system.mem_ctrl.dram.rank1.prePowerDownEnergy            0                       # Energy for precharge power-down per rank (pJ) (Joule)
system.mem_ctrl.dram.rank1.selfRefreshEnergy            0                       # Energy for self refresh per rank (pJ) (Joule)
system.mem_ctrl.dram.rank1.totalEnergy      483683265                       # Total energy per rank (pJ) (Joule)
system.mem_ctrl.dram.rank1.averagePower    552.558936                       # Core power per rank (mW) (Watt)
system.mem_ctrl.dram.rank1.totalIdleTime            0                       # Total Idle time Per DRAM Rank (Tick)
system.mem_ctrl.dram.rank1.pwrStateTime::IDLE    124179153                       # Time in different power states (Tick)
system.mem_ctrl.dram.rank1.pwrStateTime::REF     29359890                       # Time in different power states (Tick)
system.mem_ctrl.dram.rank1.pwrStateTime::SREF            0                       # Time in different power states (Tick)
system.mem_ctrl.dram.rank1.pwrStateTime::PRE_PDN            0                       # Time in different power states (Tick)
system.mem_ctrl.dram.rank1.pwrStateTime::ACT    721812406                       # Time in different power states (Tick)
system.mem_ctrl.dram.rank1.pwrStateTime::ACT_PDN            0                       # Time in different power states (Tick)
system.mem_ctrl.power_state.pwrStateResidencyTicks::UNDEFINED    875351449                       # Cumulative time (in ticks) in various power states (Tick)
system.membus.transDist::ReadResp                4253                       # Transaction distribution (Count)
system.membus.transDist::WritebackDirty           614                       # Transaction distribution (Count)
system.membus.transDist::CleanEvict              3875                       # Transaction distribution (Count)
system.membus.transDist::UpgradeReq                 1                       # Transaction distribution (Count)
system.membus.transDist::ReadExReq                237                       # Transaction distribution (Count)
system.membus.transDist::ReadExResp               237                       # Transaction distribution (Count)
system.membus.transDist::ReadSharedReq           4251                       # Transaction distribution (Count)
system.membus.pktCount_system.cpu.l1d.mem_side_port::system.mem_ctrl.port         6652                       # Packet count per connected requestor and responder (Count)
system.membus.pktCount_system.cpu.l1d.mem_side_port::total         6652                       # Packet count per connected requestor and responder (Count)
system.membus.pktCount_system.cpu.l1i.mem_side_port::system.mem_ctrl.port         6815                       # Packet count per connected requestor and responder (Count)
system.membus.pktCount_system.cpu.l1i.mem_side_port::total         6815                       # Packet count per connected requestor and responder (Count)
system.membus.pktCount::total                   13467                       # Packet count per connected requestor and responder (Count)
system.membus.pktSize_system.cpu.l1d.mem_side_port::system.mem_ctrl.port       181184                       # Cumulative packet size per connected requestor and responder (Byte)
system.membus.pktSize_system.cpu.l1d.mem_side_port::total       181184                       # Cumulative packet size per connected requestor and responder (Byte)
system.membus.pktSize_system.cpu.l1i.mem_side_port::system.mem_ctrl.port       145408                       # Cumulative packet size per connected requestor and responder (Byte)
system.membus.pktSize_system.cpu.l1i.mem_side_port::total       145408                       # Cumulative packet size per connected requestor and responder (Byte)
system.membus.pktSize::total                   326592                       # Cumulative packet size per connected requestor and responder (Byte)
system.membus.snoops                                1                       # Total snoops (Count)
system.membus.snoopTraffic                         64                       # Total snoop traffic (Byte)
system.membus.snoopFanout::samples               4489                       # Request fanout histogram (Count)
system.membus.snoopFanout::mean              0.005124                       # Request fanout histogram (Count)
system.membus.snoopFanout::stdev             0.071404                       # Request fanout histogram (Count)
system.membus.snoopFanout::underflows               0      0.00%      0.00% # Request fanout histogram (Count)
system.membus.snoopFanout::0                     4466     99.49%     99.49% # Request fanout histogram (Count)
system.membus.snoopFanout::1                       23      0.51%    100.00% # Request fanout histogram (Count)
system.membus.snoopFanout::2                        0      0.00%    100.00% # Request fanout histogram (Count)
system.membus.snoopFanout::overflows                0      0.00%    100.00% # Request fanout histogram (Count)
system.membus.snoopFanout::min_value                0                       # Request fanout histogram (Count)
system.membus.snoopFanout::max_value                1                       # Request fanout histogram (Count)
system.membus.snoopFanout::total                 4489                       # Request fanout histogram (Count)
system.membus.power_state.pwrStateResidencyTicks::UNDEFINED    875351449                       # Cumulative time (in ticks) in various power states (Tick)
system.membus.reqLayer2.occupancy           152449522                       # Layer occupancy (ticks) (Tick)
system.membus.reqLayer2.utilization               0.2                       # Layer utilization (Ratio)
system.membus.respLayer2.occupancy          150010265                       # Layer occupancy (ticks) (Tick)
system.membus.respLayer2.utilization              0.2                       # Layer utilization (Ratio)
system.membus.respLayer3.occupancy          155667917                       # Layer occupancy (ticks) (Tick)
system.membus.respLayer3.utilization              0.2                       # Layer utilization (Ratio)
system.membus.snoop_filter.totRequests           8978                       # Total number of requests made to the snoop filter. (Count)
system.membus.snoop_filter.hitSingleRequests         4490                       # Number of requests hitting in the snoop filter with a single holder of the requested data. (Count)
system.membus.snoop_filter.hitMultiRequests           22                       # Number of requests hitting in the snoop filter with multiple (>1) holders of the requested data. (Count)
system.membus.snoop_filter.totSnoops                0                       # Total number of snoops made to the snoop filter. (Count)
system.membus.snoop_filter.hitSingleSnoops            0                       # Number of snoops hitting in the snoop filter with a single holder of the requested data. (Count)
system.membus.snoop_filter.hitMultiSnoops            0                       # Number of snoops hitting in the snoop filter with multiple (>1) holders of the requested data. (Count)
system.workload.inst.arm                            0                       # number of arm instructions executed (Count)
system.workload.inst.quiesce                        0                       # number of quiesce instructions executed (Count)

---------- End Simulation Statistics   ----------
