
---------- Begin Simulation Statistics ----------
simSeconds                                   0.020674                       # Number of seconds simulated (Second)
simTicks                                  20673589814                       # Number of ticks simulated (Tick)
finalTick                                 20673589814                       # Number of ticks from beginning of simulation (restored from checkpoints and never reset) (Tick)
simFreq                                  1000000000000                       # The number of ticks per simulated second ((Tick/Second))
hostSeconds                                     32.93                       # Real time elapsed on the host (Second)
hostTickRate                                627725339                       # The number of ticks simulated per host second (ticks/s) ((Tick/Second))
hostMemory                                    8630564                       # Number of bytes of host memory used (Byte)
simInsts                                      2419934                       # Number of instructions simulated (Count)
simOps                                        4218799                       # Number of ops (including micro ops) simulated (Count)
hostInstRate                                    73478                       # Simulator instruction rate (inst/s) ((Count/Second))
hostOpRate                                     128098                       # Simulator op (including micro ops) rate (op/s) ((Count/Second))
system.clk_domain.clock                         13333                       # Clock period in ticks (Tick)
system.clk_domain.voltage_domain.voltage            1                       # Voltage in Volts (Volt)
system.cpu.numCycles                          1550559                       # Number of cpu cycles simulated (Cycle)
system.cpu.cpi                               0.640744                       # CPI: cycles per instruction (core level) ((Cycle/Count))
system.cpu.ipc                               1.560685                       # IPC: instructions per cycle (core level) ((Count/Cycle))
system.cpu.numWorkItemsStarted                      0                       # Number of work items this cpu started (Count)
system.cpu.numWorkItemsCompleted                    0                       # Number of work items this cpu completed (Count)
system.cpu.instsAdded                         5145254                       # Number of instructions added to the IQ (excludes non-spec) (Count)
system.cpu.nonSpecInstsAdded                     2706                       # Number of non-speculative instructions added to the IQ (Count)
system.cpu.instsIssued                        4852527                       # Number of instructions issued (Count)
system.cpu.squashedInstsIssued                  10214                       # Number of squashed instructions issued (Count)
system.cpu.squashedInstsExamined               929127                       # Number of squashed instructions iterated over during squash; mainly for profiling (Count)
system.cpu.squashedOperandsExamined           1611458                       # Number of squashed operands that are examined and possibly removed from graph (Count)
system.cpu.squashedNonSpecRemoved                 198                       # Number of squashed non-spec instructions that were removed (Count)
system.cpu.numIssuedDist::samples             1547578                       # Number of insts issued each cycle (Count)
system.cpu.numIssuedDist::mean               3.135562                       # Number of insts issued each cycle (Count)
system.cpu.numIssuedDist::stdev              2.573306                       # Number of insts issued each cycle (Count)
system.cpu.numIssuedDist::underflows                0      0.00%      0.00% # Number of insts issued each cycle (Count)
system.cpu.numIssuedDist::0                    396876     25.64%     25.64% # Number of insts issued each cycle (Count)
system.cpu.numIssuedDist::1                    121816      7.87%     33.52% # Number of insts issued each cycle (Count)
system.cpu.numIssuedDist::2                    155356     10.04%     43.56% # Number of insts issued each cycle (Count)
system.cpu.numIssuedDist::3                    213654     13.81%     57.36% # Number of insts issued each cycle (Count)
system.cpu.numIssuedDist::4                    153445      9.92%     67.28% # Number of insts issued each cycle (Count)
system.cpu.numIssuedDist::5                    151504      9.79%     77.07% # Number of insts issued each cycle (Count)
system.cpu.numIssuedDist::6                    157159     10.16%     87.22% # Number of insts issued each cycle (Count)
system.cpu.numIssuedDist::7                    117361      7.58%     94.80% # Number of insts issued each cycle (Count)
system.cpu.numIssuedDist::8                     80407      5.20%    100.00% # Number of insts issued each cycle (Count)
system.cpu.numIssuedDist::overflows                 0      0.00%    100.00% # Number of insts issued each cycle (Count)
system.cpu.numIssuedDist::min_value                 0                       # Number of insts issued each cycle (Count)
system.cpu.numIssuedDist::max_value                 8                       # Number of insts issued each cycle (Count)
system.cpu.numIssuedDist::total               1547578                       # Number of insts issued each cycle (Count)
system.cpu.statFuBusy::No_OpClass                   0      0.00%      0.00% # attempts to use FU when none available (Count)
system.cpu.statFuBusy::IntAlu                  105086     79.43%     79.43% # attempts to use FU when none available (Count)
system.cpu.statFuBusy::IntMult                      0      0.00%     79.43% # attempts to use FU when none available (Count)
system.cpu.statFuBusy::IntDiv                       0      0.00%     79.43% # attempts to use FU when none available (Count)
system.cpu.statFuBusy::FloatAdd                     0      0.00%     79.43% # attempts to use FU when none available (Count)
system.cpu.statFuBusy::FloatCmp                     0      0.00%     79.43% # attempts to use FU when none available (Count)
system.cpu.statFuBusy::FloatCvt                     0      0.00%     79.43% # attempts to use FU when none available (Count)
system.cpu.statFuBusy::FloatMult                    0      0.00%     79.43% # attempts to use FU when none available (Count)
system.cpu.statFuBusy::FloatMultAcc                 0      0.00%     79.43% # attempts to use FU when none available (Count)
system.cpu.statFuBusy::FloatDiv                     0      0.00%     79.43% # attempts to use FU when none available (Count)
system.cpu.statFuBusy::FloatMisc                    0      0.00%     79.43% # attempts to use FU when none available (Count)
system.cpu.statFuBusy::FloatSqrt                    0      0.00%     79.43% # attempts to use FU when none available (Count)
system.cpu.statFuBusy::SimdAdd                     15      0.01%     79.44% # attempts to use FU when none available (Count)
system.cpu.statFuBusy::SimdAddAcc                   0      0.00%     79.44% # attempts to use FU when none available (Count)
system.cpu.statFuBusy::SimdAlu                    107      0.08%     79.53% # attempts to use FU when none available (Count)
system.cpu.statFuBusy::SimdCmp                      0      0.00%     79.53% # attempts to use FU when none available (Count)
system.cpu.statFuBusy::SimdCvt                    198      0.15%     79.67% # attempts to use FU when none available (Count)
system.cpu.statFuBusy::SimdMisc                    32      0.02%     79.70% # attempts to use FU when none available (Count)
system.cpu.statFuBusy::SimdMult                     0      0.00%     79.70% # attempts to use FU when none available (Count)
system.cpu.statFuBusy::SimdMultAcc                  0      0.00%     79.70% # attempts to use FU when none available (Count)
system.cpu.statFuBusy::SimdMatMultAcc               0      0.00%     79.70% # attempts to use FU when none available (Count)
system.cpu.statFuBusy::SimdShift                   27      0.02%     79.72% # attempts to use FU when none available (Count)
system.cpu.statFuBusy::SimdShiftAcc                 0      0.00%     79.72% # attempts to use FU when none available (Count)
system.cpu.statFuBusy::SimdDiv                      0      0.00%     79.72% # attempts to use FU when none available (Count)
system.cpu.statFuBusy::SimdSqrt                     0      0.00%     79.72% # attempts to use FU when none available (Count)
system.cpu.statFuBusy::SimdFloatAdd                 0      0.00%     79.72% # attempts to use FU when none available (Count)
system.cpu.statFuBusy::SimdFloatAlu                 0      0.00%     79.72% # attempts to use FU when none available (Count)
system.cpu.statFuBusy::SimdFloatCmp                 0      0.00%     79.72% # attempts to use FU when none available (Count)
system.cpu.statFuBusy::SimdFloatCvt                 0      0.00%     79.72% # attempts to use FU when none available (Count)
system.cpu.statFuBusy::SimdFloatDiv                 0      0.00%     79.72% # attempts to use FU when none available (Count)
system.cpu.statFuBusy::SimdFloatMisc                0      0.00%     79.72% # attempts to use FU when none available (Count)
system.cpu.statFuBusy::SimdFloatMult                0      0.00%     79.72% # attempts to use FU when none available (Count)
system.cpu.statFuBusy::SimdFloatMultAcc             0      0.00%     79.72% # attempts to use FU when none available (Count)
system.cpu.statFuBusy::SimdFloatMatMultAcc            0      0.00%     79.72% # attempts to use FU when none available (Count)
system.cpu.statFuBusy::SimdFloatSqrt                0      0.00%     79.72% # attempts to use FU when none available (Count)
system.cpu.statFuBusy::SimdReduceAdd                0      0.00%     79.72% # attempts to use FU when none available (Count)
system.cpu.statFuBusy::SimdReduceAlu                0      0.00%     79.72% # attempts to use FU when none available (Count)
system.cpu.statFuBusy::SimdReduceCmp                0      0.00%     79.72% # attempts to use FU when none available (Count)
system.cpu.statFuBusy::SimdFloatReduceAdd            0      0.00%     79.72% # attempts to use FU when none available (Count)
system.cpu.statFuBusy::SimdFloatReduceCmp            0      0.00%     79.72% # attempts to use FU when none available (Count)
system.cpu.statFuBusy::SimdAes                      0      0.00%     79.72% # attempts to use FU when none available (Count)
system.cpu.statFuBusy::SimdAesMix                   0      0.00%     79.72% # attempts to use FU when none available (Count)
system.cpu.statFuBusy::SimdSha1Hash                 0      0.00%     79.72% # attempts to use FU when none available (Count)
system.cpu.statFuBusy::SimdSha1Hash2                0      0.00%     79.72% # attempts to use FU when none available (Count)
system.cpu.statFuBusy::SimdSha256Hash               0      0.00%     79.72% # attempts to use FU when none available (Count)
system.cpu.statFuBusy::SimdSha256Hash2              0      0.00%     79.72% # attempts to use FU when none available (Count)
system.cpu.statFuBusy::SimdShaSigma2                0      0.00%     79.72% # attempts to use FU when none available (Count)
system.cpu.statFuBusy::SimdShaSigma3                0      0.00%     79.72% # attempts to use FU when none available (Count)
system.cpu.statFuBusy::SimdPredAlu                  0      0.00%     79.72% # attempts to use FU when none available (Count)
system.cpu.statFuBusy::Matrix                       0      0.00%     79.72% # attempts to use FU when none available (Count)
system.cpu.statFuBusy::MatrixMov                    0      0.00%     79.72% # attempts to use FU when none available (Count)
system.cpu.statFuBusy::MatrixOP                     0      0.00%     79.72% # attempts to use FU when none available (Count)
system.cpu.statFuBusy::MemRead                  14499     10.96%     90.68% # attempts to use FU when none available (Count)
system.cpu.statFuBusy::MemWrite                 11130      8.41%     99.09% # attempts to use FU when none available (Count)
system.cpu.statFuBusy::FloatMemRead               750      0.57%     99.66% # attempts to use FU when none available (Count)
system.cpu.statFuBusy::FloatMemWrite              451      0.34%    100.00% # attempts to use FU when none available (Count)
system.cpu.statFuBusy::IprAccess                    0      0.00%    100.00% # attempts to use FU when none available (Count)
system.cpu.statFuBusy::InstPrefetch                 0      0.00%    100.00% # attempts to use FU when none available (Count)
system.cpu.statFuBusy::SimdUnitStrideLoad            0      0.00%    100.00% # attempts to use FU when none available (Count)
system.cpu.statFuBusy::SimdUnitStrideStore            0      0.00%    100.00% # attempts to use FU when none available (Count)
system.cpu.statFuBusy::SimdUnitStrideMaskLoad            0      0.00%    100.00% # attempts to use FU when none available (Count)
system.cpu.statFuBusy::SimdUnitStrideMaskStore            0      0.00%    100.00% # attempts to use FU when none available (Count)
system.cpu.statFuBusy::SimdStridedLoad              0      0.00%    100.00% # attempts to use FU when none available (Count)
system.cpu.statFuBusy::SimdStridedStore             0      0.00%    100.00% # attempts to use FU when none available (Count)
system.cpu.statFuBusy::SimdIndexedLoad              0      0.00%    100.00% # attempts to use FU when none available (Count)
system.cpu.statFuBusy::SimdIndexedStore             0      0.00%    100.00% # attempts to use FU when none available (Count)
system.cpu.statFuBusy::SimdWholeRegisterLoad            0      0.00%    100.00% # attempts to use FU when none available (Count)
system.cpu.statFuBusy::SimdWholeRegisterStore            0      0.00%    100.00% # attempts to use FU when none available (Count)
system.cpu.statFuBusy::SimdUnitStrideFaultOnlyFirstLoad            0      0.00%    100.00% # attempts to use FU when none available (Count)
system.cpu.statFuBusy::SimdUnitStrideSegmentedLoad            0      0.00%    100.00% # attempts to use FU when none available (Count)
system.cpu.statFuBusy::SimdUnitStrideSegmentedStore            0      0.00%    100.00% # attempts to use FU when none available (Count)
system.cpu.statFuBusy::SimdExt                      0      0.00%    100.00% # attempts to use FU when none available (Count)
system.cpu.statFuBusy::SimdFloatExt                 0      0.00%    100.00% # attempts to use FU when none available (Count)
system.cpu.statFuBusy::SimdConfig                   0      0.00%    100.00% # attempts to use FU when none available (Count)
system.cpu.statIssuedInstType_0::No_OpClass        29134      0.60%      0.60% # Number of instructions issued per FU type, per thread (Count)
system.cpu.statIssuedInstType_0::IntAlu       3769181     77.67%     78.27% # Number of instructions issued per FU type, per thread (Count)
system.cpu.statIssuedInstType_0::IntMult          151      0.00%     78.28% # Number of instructions issued per FU type, per thread (Count)
system.cpu.statIssuedInstType_0::IntDiv         43125      0.89%     79.17% # Number of instructions issued per FU type, per thread (Count)
system.cpu.statIssuedInstType_0::FloatAdd         9088      0.19%     79.35% # Number of instructions issued per FU type, per thread (Count)
system.cpu.statIssuedInstType_0::FloatCmp            0      0.00%     79.35% # Number of instructions issued per FU type, per thread (Count)
system.cpu.statIssuedInstType_0::FloatCvt         1768      0.04%     79.39% # Number of instructions issued per FU type, per thread (Count)
system.cpu.statIssuedInstType_0::FloatMult            0      0.00%     79.39% # Number of instructions issued per FU type, per thread (Count)
system.cpu.statIssuedInstType_0::FloatMultAcc            0      0.00%     79.39% # Number of instructions issued per FU type, per thread (Count)
system.cpu.statIssuedInstType_0::FloatDiv            0      0.00%     79.39% # Number of instructions issued per FU type, per thread (Count)
system.cpu.statIssuedInstType_0::FloatMisc            0      0.00%     79.39% # Number of instructions issued per FU type, per thread (Count)
system.cpu.statIssuedInstType_0::FloatSqrt            0      0.00%     79.39% # Number of instructions issued per FU type, per thread (Count)
system.cpu.statIssuedInstType_0::SimdAdd         7632      0.16%     79.55% # Number of instructions issued per FU type, per thread (Count)
system.cpu.statIssuedInstType_0::SimdAddAcc            0      0.00%     79.55% # Number of instructions issued per FU type, per thread (Count)
system.cpu.statIssuedInstType_0::SimdAlu        17484      0.36%     79.91% # Number of instructions issued per FU type, per thread (Count)
system.cpu.statIssuedInstType_0::SimdCmp            6      0.00%     79.91% # Number of instructions issued per FU type, per thread (Count)
system.cpu.statIssuedInstType_0::SimdCvt        16174      0.33%     80.24% # Number of instructions issued per FU type, per thread (Count)
system.cpu.statIssuedInstType_0::SimdMisc        15524      0.32%     80.56% # Number of instructions issued per FU type, per thread (Count)
system.cpu.statIssuedInstType_0::SimdMult            0      0.00%     80.56% # Number of instructions issued per FU type, per thread (Count)
system.cpu.statIssuedInstType_0::SimdMultAcc            0      0.00%     80.56% # Number of instructions issued per FU type, per thread (Count)
system.cpu.statIssuedInstType_0::SimdMatMultAcc            0      0.00%     80.56% # Number of instructions issued per FU type, per thread (Count)
system.cpu.statIssuedInstType_0::SimdShift         3279      0.07%     80.63% # Number of instructions issued per FU type, per thread (Count)
system.cpu.statIssuedInstType_0::SimdShiftAcc            0      0.00%     80.63% # Number of instructions issued per FU type, per thread (Count)
system.cpu.statIssuedInstType_0::SimdDiv            0      0.00%     80.63% # Number of instructions issued per FU type, per thread (Count)
system.cpu.statIssuedInstType_0::SimdSqrt            0      0.00%     80.63% # Number of instructions issued per FU type, per thread (Count)
system.cpu.statIssuedInstType_0::SimdFloatAdd            1      0.00%     80.63% # Number of instructions issued per FU type, per thread (Count)
system.cpu.statIssuedInstType_0::SimdFloatAlu            0      0.00%     80.63% # Number of instructions issued per FU type, per thread (Count)
system.cpu.statIssuedInstType_0::SimdFloatCmp            0      0.00%     80.63% # Number of instructions issued per FU type, per thread (Count)
system.cpu.statIssuedInstType_0::SimdFloatCvt            4      0.00%     80.63% # Number of instructions issued per FU type, per thread (Count)
system.cpu.statIssuedInstType_0::SimdFloatDiv            1      0.00%     80.63% # Number of instructions issued per FU type, per thread (Count)
system.cpu.statIssuedInstType_0::SimdFloatMisc            0      0.00%     80.63% # Number of instructions issued per FU type, per thread (Count)
system.cpu.statIssuedInstType_0::SimdFloatMult            0      0.00%     80.63% # Number of instructions issued per FU type, per thread (Count)
system.cpu.statIssuedInstType_0::SimdFloatMultAcc            0      0.00%     80.63% # Number of instructions issued per FU type, per thread (Count)
system.cpu.statIssuedInstType_0::SimdFloatMatMultAcc            0      0.00%     80.63% # Number of instructions issued per FU type, per thread (Count)
system.cpu.statIssuedInstType_0::SimdFloatSqrt            0      0.00%     80.63% # Number of instructions issued per FU type, per thread (Count)
system.cpu.statIssuedInstType_0::SimdReduceAdd            0      0.00%     80.63% # Number of instructions issued per FU type, per thread (Count)
system.cpu.statIssuedInstType_0::SimdReduceAlu            0      0.00%     80.63% # Number of instructions issued per FU type, per thread (Count)
system.cpu.statIssuedInstType_0::SimdReduceCmp            0      0.00%     80.63% # Number of instructions issued per FU type, per thread (Count)
system.cpu.statIssuedInstType_0::SimdFloatReduceAdd            0      0.00%     80.63% # Number of instructions issued per FU type, per thread (Count)
system.cpu.statIssuedInstType_0::SimdFloatReduceCmp            0      0.00%     80.63% # Number of instructions issued per FU type, per thread (Count)
system.cpu.statIssuedInstType_0::SimdAes            0      0.00%     80.63% # Number of instructions issued per FU type, per thread (Count)
system.cpu.statIssuedInstType_0::SimdAesMix            0      0.00%     80.63% # Number of instructions issued per FU type, per thread (Count)
system.cpu.statIssuedInstType_0::SimdSha1Hash            0      0.00%     80.63% # Number of instructions issued per FU type, per thread (Count)
system.cpu.statIssuedInstType_0::SimdSha1Hash2            0      0.00%     80.63% # Number of instructions issued per FU type, per thread (Count)
system.cpu.statIssuedInstType_0::SimdSha256Hash            0      0.00%     80.63% # Number of instructions issued per FU type, per thread (Count)
system.cpu.statIssuedInstType_0::SimdSha256Hash2            0      0.00%     80.63% # Number of instructions issued per FU type, per thread (Count)
system.cpu.statIssuedInstType_0::SimdShaSigma2            0      0.00%     80.63% # Number of instructions issued per FU type, per thread (Count)
system.cpu.statIssuedInstType_0::SimdShaSigma3            0      0.00%     80.63% # Number of instructions issued per FU type, per thread (Count)
system.cpu.statIssuedInstType_0::SimdPredAlu            0      0.00%     80.63% # Number of instructions issued per FU type, per thread (Count)
system.cpu.statIssuedInstType_0::Matrix             0      0.00%     80.63% # Number of instructions issued per FU type, per thread (Count)
system.cpu.statIssuedInstType_0::MatrixMov            0      0.00%     80.63% # Number of instructions issued per FU type, per thread (Count)
system.cpu.statIssuedInstType_0::MatrixOP            0      0.00%     80.63% # Number of instructions issued per FU type, per thread (Count)
system.cpu.statIssuedInstType_0::MemRead       628516     12.95%     93.58% # Number of instructions issued per FU type, per thread (Count)
system.cpu.statIssuedInstType_0::MemWrite       267690      5.52%     99.10% # Number of instructions issued per FU type, per thread (Count)
system.cpu.statIssuedInstType_0::FloatMemRead        26592      0.55%     99.65% # Number of instructions issued per FU type, per thread (Count)
system.cpu.statIssuedInstType_0::FloatMemWrite        17177      0.35%    100.00% # Number of instructions issued per FU type, per thread (Count)
system.cpu.statIssuedInstType_0::IprAccess            0      0.00%    100.00% # Number of instructions issued per FU type, per thread (Count)
system.cpu.statIssuedInstType_0::InstPrefetch            0      0.00%    100.00% # Number of instructions issued per FU type, per thread (Count)
system.cpu.statIssuedInstType_0::SimdUnitStrideLoad            0      0.00%    100.00% # Number of instructions issued per FU type, per thread (Count)
system.cpu.statIssuedInstType_0::SimdUnitStrideStore            0      0.00%    100.00% # Number of instructions issued per FU type, per thread (Count)
system.cpu.statIssuedInstType_0::SimdUnitStrideMaskLoad            0      0.00%    100.00% # Number of instructions issued per FU type, per thread (Count)
system.cpu.statIssuedInstType_0::SimdUnitStrideMaskStore            0      0.00%    100.00% # Number of instructions issued per FU type, per thread (Count)
system.cpu.statIssuedInstType_0::SimdStridedLoad            0      0.00%    100.00% # Number of instructions issued per FU type, per thread (Count)
system.cpu.statIssuedInstType_0::SimdStridedStore            0      0.00%    100.00% # Number of instructions issued per FU type, per thread (Count)
system.cpu.statIssuedInstType_0::SimdIndexedLoad            0      0.00%    100.00% # Number of instructions issued per FU type, per thread (Count)
system.cpu.statIssuedInstType_0::SimdIndexedStore            0      0.00%    100.00% # Number of instructions issued per FU type, per thread (Count)
system.cpu.statIssuedInstType_0::SimdWholeRegisterLoad            0      0.00%    100.00% # Number of instructions issued per FU type, per thread (Count)
system.cpu.statIssuedInstType_0::SimdWholeRegisterStore            0      0.00%    100.00% # Number of instructions issued per FU type, per thread (Count)
system.cpu.statIssuedInstType_0::SimdUnitStrideFaultOnlyFirstLoad            0      0.00%    100.00% # Number of instructions issued per FU type, per thread (Count)
system.cpu.statIssuedInstType_0::SimdUnitStrideSegmentedLoad            0      0.00%    100.00% # Number of instructions issued per FU type, per thread (Count)
system.cpu.statIssuedInstType_0::SimdUnitStrideSegmentedStore            0      0.00%    100.00% # Number of instructions issued per FU type, per thread (Count)
system.cpu.statIssuedInstType_0::SimdExt            0      0.00%    100.00% # Number of instructions issued per FU type, per thread (Count)
system.cpu.statIssuedInstType_0::SimdFloatExt            0      0.00%    100.00% # Number of instructions issued per FU type, per thread (Count)
system.cpu.statIssuedInstType_0::SimdConfig            0      0.00%    100.00% # Number of instructions issued per FU type, per thread (Count)
system.cpu.statIssuedInstType_0::total        4852527                       # Number of instructions issued per FU type, per thread (Count)
system.cpu.issueRate                         3.129534                       # Inst issue rate ((Count/Cycle))
system.cpu.fuBusy                              132295                       # FU busy when requested (Count)
system.cpu.fuBusyRate                        0.027263                       # FU busy rate (busy events/executed inst) ((Count/Count))
system.cpu.intInstQueueReads                 11153886                       # Number of integer instruction queue reads (Count)
system.cpu.intInstQueueWrites                 5895415                       # Number of integer instruction queue writes (Count)
system.cpu.intInstQueueWakeupAccesses         4679911                       # Number of integer instruction queue wakeup accesses (Count)
system.cpu.fpInstQueueReads                    241252                       # Number of floating instruction queue reads (Count)
system.cpu.fpInstQueueWrites                   181819                       # Number of floating instruction queue writes (Count)
system.cpu.fpInstQueueWakeupAccesses           114685                       # Number of floating instruction queue wakeup accesses (Count)
system.cpu.vecInstQueueReads                        0                       # Number of vector instruction queue reads (Count)
system.cpu.vecInstQueueWrites                       0                       # Number of vector instruction queue writes (Count)
system.cpu.vecInstQueueWakeupAccesses               0                       # Number of vector instruction queue wakeup accesses (Count)
system.cpu.intAluAccesses                     4834534                       # Number of integer alu accesses (Count)
system.cpu.fpAluAccesses                       121154                       # Number of floating point alu accesses (Count)
system.cpu.vecAluAccesses                           0                       # Number of vector alu accesses (Count)
system.cpu.numSquashedInsts                     34091                       # Number of squashed instructions skipped in execute (Count)
system.cpu.numSwp                                   0                       # Number of swp insts executed (Count)
system.cpu.timesIdled                             897                       # Number of times that the entire CPU went into an idle state and unscheduled itself (Count)
system.cpu.idleCycles                            2981                       # Total number of cycles that the CPU has spent unscheduled due to idling (Cycle)
system.cpu.MemDepUnit__0.insertedLoads         686776                       # Number of loads inserted to the mem dependence unit. (Count)
system.cpu.MemDepUnit__0.insertedStores        299824                       # Number of stores inserted to the mem dependence unit. (Count)
system.cpu.MemDepUnit__0.conflictingLoads        27527                       # Number of conflicting loads. (Count)
system.cpu.MemDepUnit__0.conflictingStores        15738                       # Number of conflicting stores. (Count)
system.cpu.MemDepUnit__1.insertedLoads              0                       # Number of loads inserted to the mem dependence unit. (Count)
system.cpu.MemDepUnit__1.insertedStores             0                       # Number of stores inserted to the mem dependence unit. (Count)
system.cpu.MemDepUnit__1.conflictingLoads            0                       # Number of conflicting loads. (Count)
system.cpu.MemDepUnit__1.conflictingStores            0                       # Number of conflicting stores. (Count)
system.cpu.MemDepUnit__2.insertedLoads              0                       # Number of loads inserted to the mem dependence unit. (Count)
system.cpu.MemDepUnit__2.insertedStores             0                       # Number of stores inserted to the mem dependence unit. (Count)
system.cpu.MemDepUnit__2.conflictingLoads            0                       # Number of conflicting loads. (Count)
system.cpu.MemDepUnit__2.conflictingStores            0                       # Number of conflicting stores. (Count)
system.cpu.MemDepUnit__3.insertedLoads              0                       # Number of loads inserted to the mem dependence unit. (Count)
system.cpu.MemDepUnit__3.insertedStores             0                       # Number of stores inserted to the mem dependence unit. (Count)
system.cpu.MemDepUnit__3.conflictingLoads            0                       # Number of conflicting loads. (Count)
system.cpu.MemDepUnit__3.conflictingStores            0                       # Number of conflicting stores. (Count)
system.cpu.branchPred.lookups_0::NoBranch         2065      0.38%      0.38% # Number of BP lookups (Count)
system.cpu.branchPred.lookups_0::Return         16632      3.04%      3.41% # Number of BP lookups (Count)
system.cpu.branchPred.lookups_0::CallDirect        21901      4.00%      7.41% # Number of BP lookups (Count)
system.cpu.branchPred.lookups_0::CallIndirect         1458      0.27%      7.68% # Number of BP lookups (Count)
system.cpu.branchPred.lookups_0::DirectCond       470158     85.86%     93.54% # Number of BP lookups (Count)
system.cpu.branchPred.lookups_0::DirectUncond        23633      4.32%     97.85% # Number of BP lookups (Count)
system.cpu.branchPred.lookups_0::IndirectCond            0      0.00%     97.85% # Number of BP lookups (Count)
system.cpu.branchPred.lookups_0::IndirectUncond        11751      2.15%    100.00% # Number of BP lookups (Count)
system.cpu.branchPred.lookups_0::total         547598                       # Number of BP lookups (Count)
system.cpu.branchPred.squashes_0::NoBranch         1832      1.24%      1.24% # Number of branches that got squashed (completely removed) as an earlier branch was mispredicted. (Count)
system.cpu.branchPred.squashes_0::Return         3945      2.68%      3.92% # Number of branches that got squashed (completely removed) as an earlier branch was mispredicted. (Count)
system.cpu.branchPred.squashes_0::CallDirect         9842      6.68%     10.60% # Number of branches that got squashed (completely removed) as an earlier branch was mispredicted. (Count)
system.cpu.branchPred.squashes_0::CallIndirect          825      0.56%     11.16% # Number of branches that got squashed (completely removed) as an earlier branch was mispredicted. (Count)
system.cpu.branchPred.squashes_0::DirectCond       116664     79.20%     90.36% # Number of branches that got squashed (completely removed) as an earlier branch was mispredicted. (Count)
system.cpu.branchPred.squashes_0::DirectUncond         7826      5.31%     95.68% # Number of branches that got squashed (completely removed) as an earlier branch was mispredicted. (Count)
system.cpu.branchPred.squashes_0::IndirectCond            0      0.00%     95.68% # Number of branches that got squashed (completely removed) as an earlier branch was mispredicted. (Count)
system.cpu.branchPred.squashes_0::IndirectUncond         6370      4.32%    100.00% # Number of branches that got squashed (completely removed) as an earlier branch was mispredicted. (Count)
system.cpu.branchPred.squashes_0::total        147304                       # Number of branches that got squashed (completely removed) as an earlier branch was mispredicted. (Count)
system.cpu.branchPred.corrected_0::NoBranch          383      2.08%      2.08% # Number of branches that got corrected but not yet commited. Branches get corrected by decode or after execute. Also a branch misprediction can be detected out-of-order. Therefore, a corrected branch might not end up beeing committed in case an even earlier branch was mispredicted (Count)
system.cpu.branchPred.corrected_0::Return           12      0.07%      2.15% # Number of branches that got corrected but not yet commited. Branches get corrected by decode or after execute. Also a branch misprediction can be detected out-of-order. Therefore, a corrected branch might not end up beeing committed in case an even earlier branch was mispredicted (Count)
system.cpu.branchPred.corrected_0::CallDirect          838      4.55%      6.70% # Number of branches that got corrected but not yet commited. Branches get corrected by decode or after execute. Also a branch misprediction can be detected out-of-order. Therefore, a corrected branch might not end up beeing committed in case an even earlier branch was mispredicted (Count)
system.cpu.branchPred.corrected_0::CallIndirect          264      1.43%      8.14% # Number of branches that got corrected but not yet commited. Branches get corrected by decode or after execute. Also a branch misprediction can be detected out-of-order. Therefore, a corrected branch might not end up beeing committed in case an even earlier branch was mispredicted (Count)
system.cpu.branchPred.corrected_0::DirectCond        14976     81.40%     89.54% # Number of branches that got corrected but not yet commited. Branches get corrected by decode or after execute. Also a branch misprediction can be detected out-of-order. Therefore, a corrected branch might not end up beeing committed in case an even earlier branch was mispredicted (Count)
system.cpu.branchPred.corrected_0::DirectUncond          669      3.64%     93.17% # Number of branches that got corrected but not yet commited. Branches get corrected by decode or after execute. Also a branch misprediction can be detected out-of-order. Therefore, a corrected branch might not end up beeing committed in case an even earlier branch was mispredicted (Count)
system.cpu.branchPred.corrected_0::IndirectCond            0      0.00%     93.17% # Number of branches that got corrected but not yet commited. Branches get corrected by decode or after execute. Also a branch misprediction can be detected out-of-order. Therefore, a corrected branch might not end up beeing committed in case an even earlier branch was mispredicted (Count)
system.cpu.branchPred.corrected_0::IndirectUncond         1256      6.83%    100.00% # Number of branches that got corrected but not yet commited. Branches get corrected by decode or after execute. Also a branch misprediction can be detected out-of-order. Therefore, a corrected branch might not end up beeing committed in case an even earlier branch was mispredicted (Count)
system.cpu.branchPred.corrected_0::total        18398                       # Number of branches that got corrected but not yet commited. Branches get corrected by decode or after execute. Also a branch misprediction can be detected out-of-order. Therefore, a corrected branch might not end up beeing committed in case an even earlier branch was mispredicted (Count)
system.cpu.branchPred.earlyResteers_0::NoBranch            0                       # Number of branches that got redirected after decode. (Count)
system.cpu.branchPred.earlyResteers_0::Return            0                       # Number of branches that got redirected after decode. (Count)
system.cpu.branchPred.earlyResteers_0::CallDirect            0                       # Number of branches that got redirected after decode. (Count)
system.cpu.branchPred.earlyResteers_0::CallIndirect            0                       # Number of branches that got redirected after decode. (Count)
system.cpu.branchPred.earlyResteers_0::DirectCond            0                       # Number of branches that got redirected after decode. (Count)
system.cpu.branchPred.earlyResteers_0::DirectUncond            0                       # Number of branches that got redirected after decode. (Count)
system.cpu.branchPred.earlyResteers_0::IndirectCond            0                       # Number of branches that got redirected after decode. (Count)
system.cpu.branchPred.earlyResteers_0::IndirectUncond            0                       # Number of branches that got redirected after decode. (Count)
system.cpu.branchPred.earlyResteers_0::total            0                       # Number of branches that got redirected after decode. (Count)
system.cpu.branchPred.committed_0::NoBranch          233      0.06%      0.06% # Number of branches finally committed  (Count)
system.cpu.branchPred.committed_0::Return        12685      3.17%      3.23% # Number of branches finally committed  (Count)
system.cpu.branchPred.committed_0::CallDirect        12059      3.01%      6.24% # Number of branches finally committed  (Count)
system.cpu.branchPred.committed_0::CallIndirect          633      0.16%      6.40% # Number of branches finally committed  (Count)
system.cpu.branchPred.committed_0::DirectCond       353491     88.31%     94.71% # Number of branches finally committed  (Count)
system.cpu.branchPred.committed_0::DirectUncond        15806      3.95%     98.66% # Number of branches finally committed  (Count)
system.cpu.branchPred.committed_0::IndirectCond            0      0.00%     98.66% # Number of branches finally committed  (Count)
system.cpu.branchPred.committed_0::IndirectUncond         5381      1.34%    100.00% # Number of branches finally committed  (Count)
system.cpu.branchPred.committed_0::total       400288                       # Number of branches finally committed  (Count)
system.cpu.branchPred.mispredicted_0::NoBranch          233      1.52%      1.52% # Number of committed branches that were mispredicted. (Count)
system.cpu.branchPred.mispredicted_0::Return            0      0.00%      1.52% # Number of committed branches that were mispredicted. (Count)
system.cpu.branchPred.mispredicted_0::CallDirect          518      3.38%      4.90% # Number of committed branches that were mispredicted. (Count)
system.cpu.branchPred.mispredicted_0::CallIndirect          238      1.55%      6.45% # Number of committed branches that were mispredicted. (Count)
system.cpu.branchPred.mispredicted_0::DirectCond        12754     83.23%     89.68% # Number of committed branches that were mispredicted. (Count)
system.cpu.branchPred.mispredicted_0::DirectUncond          387      2.53%     92.21% # Number of committed branches that were mispredicted. (Count)
system.cpu.branchPred.mispredicted_0::IndirectCond            0      0.00%     92.21% # Number of committed branches that were mispredicted. (Count)
system.cpu.branchPred.mispredicted_0::IndirectUncond         1194      7.79%    100.00% # Number of committed branches that were mispredicted. (Count)
system.cpu.branchPred.mispredicted_0::total        15324                       # Number of committed branches that were mispredicted. (Count)
system.cpu.branchPred.targetProvider_0::NoTarget       243923     44.54%     44.54% # The component providing the target for taken branches (Count)
system.cpu.branchPred.targetProvider_0::BTB       281595     51.42%     95.97% # The component providing the target for taken branches (Count)
system.cpu.branchPred.targetProvider_0::RAS        16631      3.04%     99.00% # The component providing the target for taken branches (Count)
system.cpu.branchPred.targetProvider_0::Indirect         5449      1.00%    100.00% # The component providing the target for taken branches (Count)
system.cpu.branchPred.targetProvider_0::total       547598                       # The component providing the target for taken branches (Count)
system.cpu.branchPred.targetWrong_0::NoBranch         9043     55.60%     55.60% # Number of branches where the target was incorrect or not available at prediction time. (Count)
system.cpu.branchPred.targetWrong_0::Return         7070     43.47%     99.08% # Number of branches where the target was incorrect or not available at prediction time. (Count)
system.cpu.branchPred.targetWrong_0::CallDirect           12      0.07%     99.15% # Number of branches where the target was incorrect or not available at prediction time. (Count)
system.cpu.branchPred.targetWrong_0::CallIndirect          138      0.85%    100.00% # Number of branches where the target was incorrect or not available at prediction time. (Count)
system.cpu.branchPred.targetWrong_0::DirectCond            0      0.00%    100.00% # Number of branches where the target was incorrect or not available at prediction time. (Count)
system.cpu.branchPred.targetWrong_0::DirectUncond            0      0.00%    100.00% # Number of branches where the target was incorrect or not available at prediction time. (Count)
system.cpu.branchPred.targetWrong_0::IndirectCond            0      0.00%    100.00% # Number of branches where the target was incorrect or not available at prediction time. (Count)
system.cpu.branchPred.targetWrong_0::IndirectUncond            0      0.00%    100.00% # Number of branches where the target was incorrect or not available at prediction time. (Count)
system.cpu.branchPred.targetWrong_0::total        16263                       # Number of branches where the target was incorrect or not available at prediction time. (Count)
system.cpu.branchPred.condPredicted            472223                       # Number of conditional branches predicted (Count)
system.cpu.branchPred.condPredictedTaken       241001                       # Number of conditional branches predicted as taken (Count)
system.cpu.branchPred.condIncorrect             18398                       # Number of conditional branches incorrect (Count)
system.cpu.branchPred.predTakenBTBMiss           1870                       # Number of branches predicted taken but missed in BTB (Count)
system.cpu.branchPred.NotTakenMispredicted        10651                       # Number branches predicted 'not taken' but turned out to be taken (Count)
system.cpu.branchPred.TakenMispredicted          7747                       # Number branches predicted taken but are actually not taken (Count)
system.cpu.branchPred.BTBLookups               547598                       # Number of BTB lookups (Count)
system.cpu.branchPred.BTBUpdates                 8736                       # Number of BTB updates (Count)
system.cpu.branchPred.BTBHits                  375064                       # Number of BTB hits (Count)
system.cpu.branchPred.BTBHitRatio            0.684926                       # BTB Hit Ratio (Ratio)
system.cpu.branchPred.BTBMispredicted            2770                       # Number BTB mispredictions. No target found or target wrong (Count)
system.cpu.branchPred.indirectLookups           13209                       # Number of indirect predictor lookups. (Count)
system.cpu.branchPred.indirectHits               5449                       # Number of indirect target hits. (Count)
system.cpu.branchPred.indirectMisses             7760                       # Number of indirect misses. (Count)
system.cpu.branchPred.indirectMispredicted            0                       # Number of mispredicted indirect branches. (Count)
system.cpu.branchPred.btb.lookups::NoBranch         2065      0.38%      0.38% # Number of BTB lookups (Count)
system.cpu.branchPred.btb.lookups::Return        16632      3.04%      3.41% # Number of BTB lookups (Count)
system.cpu.branchPred.btb.lookups::CallDirect        21901      4.00%      7.41% # Number of BTB lookups (Count)
system.cpu.branchPred.btb.lookups::CallIndirect         1458      0.27%      7.68% # Number of BTB lookups (Count)
system.cpu.branchPred.btb.lookups::DirectCond       470158     85.86%     93.54% # Number of BTB lookups (Count)
system.cpu.branchPred.btb.lookups::DirectUncond        23633      4.32%     97.85% # Number of BTB lookups (Count)
system.cpu.branchPred.btb.lookups::IndirectCond            0      0.00%     97.85% # Number of BTB lookups (Count)
system.cpu.branchPred.btb.lookups::IndirectUncond        11751      2.15%    100.00% # Number of BTB lookups (Count)
system.cpu.branchPred.btb.lookups::total       547598                       # Number of BTB lookups (Count)
system.cpu.branchPred.btb.misses::NoBranch          400      0.23%      0.23% # Number of BTB misses (Count)
system.cpu.branchPred.btb.misses::Return        16632      9.64%      9.87% # Number of BTB misses (Count)
system.cpu.branchPred.btb.misses::CallDirect         1314      0.76%     10.63% # Number of BTB misses (Count)
system.cpu.branchPred.btb.misses::CallIndirect         1458      0.85%     11.48% # Number of BTB misses (Count)
system.cpu.branchPred.btb.misses::DirectCond       139947     81.11%     92.59% # Number of BTB misses (Count)
system.cpu.branchPred.btb.misses::DirectUncond         1032      0.60%     93.19% # Number of BTB misses (Count)
system.cpu.branchPred.btb.misses::IndirectCond            0      0.00%     93.19% # Number of BTB misses (Count)
system.cpu.branchPred.btb.misses::IndirectUncond        11751      6.81%    100.00% # Number of BTB misses (Count)
system.cpu.branchPred.btb.misses::total        172534                       # Number of BTB misses (Count)
system.cpu.branchPred.btb.updates::NoBranch            0      0.00%      0.00% # Number of BTB updates (Count)
system.cpu.branchPred.btb.updates::Return            0      0.00%      0.00% # Number of BTB updates (Count)
system.cpu.branchPred.btb.updates::CallDirect          838      9.59%      9.59% # Number of BTB updates (Count)
system.cpu.branchPred.btb.updates::CallIndirect            0      0.00%      9.59% # Number of BTB updates (Count)
system.cpu.branchPred.btb.updates::DirectCond         7229     82.75%     92.34% # Number of BTB updates (Count)
system.cpu.branchPred.btb.updates::DirectUncond          669      7.66%    100.00% # Number of BTB updates (Count)
system.cpu.branchPred.btb.updates::IndirectCond            0      0.00%    100.00% # Number of BTB updates (Count)
system.cpu.branchPred.btb.updates::IndirectUncond            0      0.00%    100.00% # Number of BTB updates (Count)
system.cpu.branchPred.btb.updates::total         8736                       # Number of BTB updates (Count)
system.cpu.branchPred.btb.mispredict::NoBranch            0      0.00%      0.00% # Number of BTB mispredictions. No target found or target wrong. (Count)
system.cpu.branchPred.btb.mispredict::Return            0      0.00%      0.00% # Number of BTB mispredictions. No target found or target wrong. (Count)
system.cpu.branchPred.btb.mispredict::CallDirect          838      9.59%      9.59% # Number of BTB mispredictions. No target found or target wrong. (Count)
system.cpu.branchPred.btb.mispredict::CallIndirect            0      0.00%      9.59% # Number of BTB mispredictions. No target found or target wrong. (Count)
system.cpu.branchPred.btb.mispredict::DirectCond         7229     82.75%     92.34% # Number of BTB mispredictions. No target found or target wrong. (Count)
system.cpu.branchPred.btb.mispredict::DirectUncond          669      7.66%    100.00% # Number of BTB mispredictions. No target found or target wrong. (Count)
system.cpu.branchPred.btb.mispredict::IndirectCond            0      0.00%    100.00% # Number of BTB mispredictions. No target found or target wrong. (Count)
system.cpu.branchPred.btb.mispredict::IndirectUncond            0      0.00%    100.00% # Number of BTB mispredictions. No target found or target wrong. (Count)
system.cpu.branchPred.btb.mispredict::total         8736                       # Number of BTB mispredictions. No target found or target wrong. (Count)
system.cpu.branchPred.btb.power_state.pwrStateResidencyTicks::UNDEFINED  20673589814                       # Cumulative time (in ticks) in various power states (Tick)
system.cpu.branchPred.indirectBranchPred.lookups        13209                       # Number of lookups (Count)
system.cpu.branchPred.indirectBranchPred.hits         5449                       # Number of hits of a tag (Count)
system.cpu.branchPred.indirectBranchPred.misses         7760                       # Number of misses (Count)
system.cpu.branchPred.indirectBranchPred.targetRecords         1520                       # Number of targets that where recorded/installed in the cache (Count)
system.cpu.branchPred.indirectBranchPred.indirectRecords        14729                       # Number of indirect branches/calls recorded in the indirect hist (Count)
system.cpu.branchPred.indirectBranchPred.speculativeOverflows            1                       # Number of times more than the allowed capacity for speculative branches/calls where in flight and destroy the path history (Count)
system.cpu.branchPred.ras.pushes                27304                       # Number of times a PC was pushed onto the RAS (Count)
system.cpu.branchPred.ras.pops                  27299                       # Number of times a PC was poped from the RAS (Count)
system.cpu.branchPred.ras.squashes              14612                       # Number of times the stack operation was squashed due to wrong speculation. (Count)
system.cpu.branchPred.ras.used                  12685                       # Number of times the RAS is the provider (Count)
system.cpu.branchPred.ras.correct               12685                       # Number of times the RAS is the provider and the prediction is correct (Count)
system.cpu.branchPred.ras.incorrect                 0                       # Number of times the RAS is the provider and the prediction is wrong (Count)
system.cpu.commit.commitSquashedInsts          917664                       # The number of squashed insts skipped by commit (Count)
system.cpu.commit.commitNonSpecStalls            2508                       # The number of times commit has been forced to stall to communicate backwards (Count)
system.cpu.commit.branchMispredicts             16979                       # The number of times a branch was mispredicted (Count)
system.cpu.commit.numCommittedDist::samples      1413889                       # Number of insts commited each cycle (Count)
system.cpu.commit.numCommittedDist::mean     2.983826                       # Number of insts commited each cycle (Count)
system.cpu.commit.numCommittedDist::stdev     3.174836                       # Number of insts commited each cycle (Count)
system.cpu.commit.numCommittedDist::underflows            0      0.00%      0.00% # Number of insts commited each cycle (Count)
system.cpu.commit.numCommittedDist::0          449632     31.80%     31.80% # Number of insts commited each cycle (Count)
system.cpu.commit.numCommittedDist::1          270413     19.13%     50.93% # Number of insts commited each cycle (Count)
system.cpu.commit.numCommittedDist::2           86256      6.10%     57.03% # Number of insts commited each cycle (Count)
system.cpu.commit.numCommittedDist::3          153429     10.85%     67.88% # Number of insts commited each cycle (Count)
system.cpu.commit.numCommittedDist::4           33473      2.37%     70.25% # Number of insts commited each cycle (Count)
system.cpu.commit.numCommittedDist::5           19154      1.35%     71.60% # Number of insts commited each cycle (Count)
system.cpu.commit.numCommittedDist::6           12884      0.91%     72.51% # Number of insts commited each cycle (Count)
system.cpu.commit.numCommittedDist::7          100563      7.11%     79.62% # Number of insts commited each cycle (Count)
system.cpu.commit.numCommittedDist::8          288085     20.38%    100.00% # Number of insts commited each cycle (Count)
system.cpu.commit.numCommittedDist::overflows            0      0.00%    100.00% # Number of insts commited each cycle (Count)
system.cpu.commit.numCommittedDist::min_value            0                       # Number of insts commited each cycle (Count)
system.cpu.commit.numCommittedDist::max_value            8                       # Number of insts commited each cycle (Count)
system.cpu.commit.numCommittedDist::total      1413889                       # Number of insts commited each cycle (Count)
system.cpu.commit.amos                              0                       # Number of atomic instructions committed (Count)
system.cpu.commit.membars                        1026                       # Number of memory barriers committed (Count)
system.cpu.commit.functionCalls                 12692                       # Number of function calls committed. (Count)
system.cpu.commit.committedInstType_0::No_OpClass        16108      0.38%      0.38% # Class of committed instruction (Count)
system.cpu.commit.committedInstType_0::IntAlu      3308161     78.41%     78.80% # Class of committed instruction (Count)
system.cpu.commit.committedInstType_0::IntMult           94      0.00%     78.80% # Class of committed instruction (Count)
system.cpu.commit.committedInstType_0::IntDiv        39393      0.93%     79.73% # Class of committed instruction (Count)
system.cpu.commit.committedInstType_0::FloatAdd         7308      0.17%     79.91% # Class of committed instruction (Count)
system.cpu.commit.committedInstType_0::FloatCmp            0      0.00%     79.91% # Class of committed instruction (Count)
system.cpu.commit.committedInstType_0::FloatCvt         1712      0.04%     79.95% # Class of committed instruction (Count)
system.cpu.commit.committedInstType_0::FloatMult            0      0.00%     79.95% # Class of committed instruction (Count)
system.cpu.commit.committedInstType_0::FloatMultAcc            0      0.00%     79.95% # Class of committed instruction (Count)
system.cpu.commit.committedInstType_0::FloatDiv            0      0.00%     79.95% # Class of committed instruction (Count)
system.cpu.commit.committedInstType_0::FloatMisc            0      0.00%     79.95% # Class of committed instruction (Count)
system.cpu.commit.committedInstType_0::FloatSqrt            0      0.00%     79.95% # Class of committed instruction (Count)
system.cpu.commit.committedInstType_0::SimdAdd         6810      0.16%     80.11% # Class of committed instruction (Count)
system.cpu.commit.committedInstType_0::SimdAddAcc            0      0.00%     80.11% # Class of committed instruction (Count)
system.cpu.commit.committedInstType_0::SimdAlu        13095      0.31%     80.42% # Class of committed instruction (Count)
system.cpu.commit.committedInstType_0::SimdCmp            6      0.00%     80.42% # Class of committed instruction (Count)
system.cpu.commit.committedInstType_0::SimdCvt        13632      0.32%     80.74% # Class of committed instruction (Count)
system.cpu.commit.committedInstType_0::SimdMisc        14198      0.34%     81.08% # Class of committed instruction (Count)
system.cpu.commit.committedInstType_0::SimdMult            0      0.00%     81.08% # Class of committed instruction (Count)
system.cpu.commit.committedInstType_0::SimdMultAcc            0      0.00%     81.08% # Class of committed instruction (Count)
system.cpu.commit.committedInstType_0::SimdMatMultAcc            0      0.00%     81.08% # Class of committed instruction (Count)
system.cpu.commit.committedInstType_0::SimdShift         1562      0.04%     81.12% # Class of committed instruction (Count)
system.cpu.commit.committedInstType_0::SimdShiftAcc            0      0.00%     81.12% # Class of committed instruction (Count)
system.cpu.commit.committedInstType_0::SimdDiv            0      0.00%     81.12% # Class of committed instruction (Count)
system.cpu.commit.committedInstType_0::SimdSqrt            0      0.00%     81.12% # Class of committed instruction (Count)
system.cpu.commit.committedInstType_0::SimdFloatAdd            1      0.00%     81.12% # Class of committed instruction (Count)
system.cpu.commit.committedInstType_0::SimdFloatAlu            0      0.00%     81.12% # Class of committed instruction (Count)
system.cpu.commit.committedInstType_0::SimdFloatCmp            0      0.00%     81.12% # Class of committed instruction (Count)
system.cpu.commit.committedInstType_0::SimdFloatCvt            2      0.00%     81.12% # Class of committed instruction (Count)
system.cpu.commit.committedInstType_0::SimdFloatDiv            1      0.00%     81.12% # Class of committed instruction (Count)
system.cpu.commit.committedInstType_0::SimdFloatMisc            0      0.00%     81.12% # Class of committed instruction (Count)
system.cpu.commit.committedInstType_0::SimdFloatMult            0      0.00%     81.12% # Class of committed instruction (Count)
system.cpu.commit.committedInstType_0::SimdFloatMultAcc            0      0.00%     81.12% # Class of committed instruction (Count)
system.cpu.commit.committedInstType_0::SimdFloatMatMultAcc            0      0.00%     81.12% # Class of committed instruction (Count)
system.cpu.commit.committedInstType_0::SimdFloatSqrt            0      0.00%     81.12% # Class of committed instruction (Count)
system.cpu.commit.committedInstType_0::SimdReduceAdd            0      0.00%     81.12% # Class of committed instruction (Count)
system.cpu.commit.committedInstType_0::SimdReduceAlu            0      0.00%     81.12% # Class of committed instruction (Count)
system.cpu.commit.committedInstType_0::SimdReduceCmp            0      0.00%     81.12% # Class of committed instruction (Count)
system.cpu.commit.committedInstType_0::SimdFloatReduceAdd            0      0.00%     81.12% # Class of committed instruction (Count)
system.cpu.commit.committedInstType_0::SimdFloatReduceCmp            0      0.00%     81.12% # Class of committed instruction (Count)
system.cpu.commit.committedInstType_0::SimdAes            0      0.00%     81.12% # Class of committed instruction (Count)
system.cpu.commit.committedInstType_0::SimdAesMix            0      0.00%     81.12% # Class of committed instruction (Count)
system.cpu.commit.committedInstType_0::SimdSha1Hash            0      0.00%     81.12% # Class of committed instruction (Count)
system.cpu.commit.committedInstType_0::SimdSha1Hash2            0      0.00%     81.12% # Class of committed instruction (Count)
system.cpu.commit.committedInstType_0::SimdSha256Hash            0      0.00%     81.12% # Class of committed instruction (Count)
system.cpu.commit.committedInstType_0::SimdSha256Hash2            0      0.00%     81.12% # Class of committed instruction (Count)
system.cpu.commit.committedInstType_0::SimdShaSigma2            0      0.00%     81.12% # Class of committed instruction (Count)
system.cpu.commit.committedInstType_0::SimdShaSigma3            0      0.00%     81.12% # Class of committed instruction (Count)
system.cpu.commit.committedInstType_0::SimdPredAlu            0      0.00%     81.12% # Class of committed instruction (Count)
system.cpu.commit.committedInstType_0::Matrix            0      0.00%     81.12% # Class of committed instruction (Count)
system.cpu.commit.committedInstType_0::MatrixMov            0      0.00%     81.12% # Class of committed instruction (Count)
system.cpu.commit.committedInstType_0::MatrixOP            0      0.00%     81.12% # Class of committed instruction (Count)
system.cpu.commit.committedInstType_0::MemRead       545239     12.92%     94.04% # Class of committed instruction (Count)
system.cpu.commit.committedInstType_0::MemWrite       217004      5.14%     99.18% # Class of committed instruction (Count)
system.cpu.commit.committedInstType_0::FloatMemRead        18422      0.44%     99.62% # Class of committed instruction (Count)
system.cpu.commit.committedInstType_0::FloatMemWrite        16051      0.38%    100.00% # Class of committed instruction (Count)
system.cpu.commit.committedInstType_0::IprAccess            0      0.00%    100.00% # Class of committed instruction (Count)
system.cpu.commit.committedInstType_0::InstPrefetch            0      0.00%    100.00% # Class of committed instruction (Count)
system.cpu.commit.committedInstType_0::SimdUnitStrideLoad            0      0.00%    100.00% # Class of committed instruction (Count)
system.cpu.commit.committedInstType_0::SimdUnitStrideStore            0      0.00%    100.00% # Class of committed instruction (Count)
system.cpu.commit.committedInstType_0::SimdUnitStrideMaskLoad            0      0.00%    100.00% # Class of committed instruction (Count)
system.cpu.commit.committedInstType_0::SimdUnitStrideMaskStore            0      0.00%    100.00% # Class of committed instruction (Count)
system.cpu.commit.committedInstType_0::SimdStridedLoad            0      0.00%    100.00% # Class of committed instruction (Count)
system.cpu.commit.committedInstType_0::SimdStridedStore            0      0.00%    100.00% # Class of committed instruction (Count)
system.cpu.commit.committedInstType_0::SimdIndexedLoad            0      0.00%    100.00% # Class of committed instruction (Count)
system.cpu.commit.committedInstType_0::SimdIndexedStore            0      0.00%    100.00% # Class of committed instruction (Count)
system.cpu.commit.committedInstType_0::SimdWholeRegisterLoad            0      0.00%    100.00% # Class of committed instruction (Count)
system.cpu.commit.committedInstType_0::SimdWholeRegisterStore            0      0.00%    100.00% # Class of committed instruction (Count)
system.cpu.commit.committedInstType_0::SimdUnitStrideFaultOnlyFirstLoad            0      0.00%    100.00% # Class of committed instruction (Count)
system.cpu.commit.committedInstType_0::SimdUnitStrideSegmentedLoad            0      0.00%    100.00% # Class of committed instruction (Count)
system.cpu.commit.committedInstType_0::SimdUnitStrideSegmentedStore            0      0.00%    100.00% # Class of committed instruction (Count)
system.cpu.commit.committedInstType_0::SimdExt            0      0.00%    100.00% # Class of committed instruction (Count)
system.cpu.commit.committedInstType_0::SimdFloatExt            0      0.00%    100.00% # Class of committed instruction (Count)
system.cpu.commit.committedInstType_0::SimdConfig            0      0.00%    100.00% # Class of committed instruction (Count)
system.cpu.commit.committedInstType_0::total      4218799                       # Class of committed instruction (Count)
system.cpu.commit.commitEligibleSamples        288085                       # number cycles where commit BW limit reached (Cycle)
system.cpu.commitStats0.numInsts              2419934                       # Number of instructions committed (thread level) (Count)
system.cpu.commitStats0.numOps                4218799                       # Number of ops (including micro ops) committed (thread level) (Count)
system.cpu.commitStats0.numInstsNotNOP        2419934                       # Number of instructions committed excluding NOPs or prefetches (Count)
system.cpu.commitStats0.numOpsNotNOP          4218799                       # Number of Ops (including micro ops) Simulated (Count)
system.cpu.commitStats0.cpi                  0.640744                       # CPI: cycles per instruction (thread level) ((Cycle/Count))
system.cpu.commitStats0.ipc                  1.560685                       # IPC: instructions per cycle (thread level) ((Count/Cycle))
system.cpu.commitStats0.numMemRefs             796716                       # Number of memory references committed (Count)
system.cpu.commitStats0.numFpInsts              97231                       # Number of float instructions (Count)
system.cpu.commitStats0.numIntInsts           4142165                       # Number of integer instructions (Count)
system.cpu.commitStats0.numLoadInsts           563661                       # Number of load instructions (Count)
system.cpu.commitStats0.numStoreInsts          233055                       # Number of store instructions (Count)
system.cpu.commitStats0.numVecInsts                 0                       # Number of vector instructions (Count)
system.cpu.commitStats0.committedInstType::No_OpClass        16108      0.38%      0.38% # Class of committed instruction. (Count)
system.cpu.commitStats0.committedInstType::IntAlu      3308161     78.41%     78.80% # Class of committed instruction. (Count)
system.cpu.commitStats0.committedInstType::IntMult           94      0.00%     78.80% # Class of committed instruction. (Count)
system.cpu.commitStats0.committedInstType::IntDiv        39393      0.93%     79.73% # Class of committed instruction. (Count)
system.cpu.commitStats0.committedInstType::FloatAdd         7308      0.17%     79.91% # Class of committed instruction. (Count)
system.cpu.commitStats0.committedInstType::FloatCmp            0      0.00%     79.91% # Class of committed instruction. (Count)
system.cpu.commitStats0.committedInstType::FloatCvt         1712      0.04%     79.95% # Class of committed instruction. (Count)
system.cpu.commitStats0.committedInstType::FloatMult            0      0.00%     79.95% # Class of committed instruction. (Count)
system.cpu.commitStats0.committedInstType::FloatMultAcc            0      0.00%     79.95% # Class of committed instruction. (Count)
system.cpu.commitStats0.committedInstType::FloatDiv            0      0.00%     79.95% # Class of committed instruction. (Count)
system.cpu.commitStats0.committedInstType::FloatMisc            0      0.00%     79.95% # Class of committed instruction. (Count)
system.cpu.commitStats0.committedInstType::FloatSqrt            0      0.00%     79.95% # Class of committed instruction. (Count)
system.cpu.commitStats0.committedInstType::SimdAdd         6810      0.16%     80.11% # Class of committed instruction. (Count)
system.cpu.commitStats0.committedInstType::SimdAddAcc            0      0.00%     80.11% # Class of committed instruction. (Count)
system.cpu.commitStats0.committedInstType::SimdAlu        13095      0.31%     80.42% # Class of committed instruction. (Count)
system.cpu.commitStats0.committedInstType::SimdCmp            6      0.00%     80.42% # Class of committed instruction. (Count)
system.cpu.commitStats0.committedInstType::SimdCvt        13632      0.32%     80.74% # Class of committed instruction. (Count)
system.cpu.commitStats0.committedInstType::SimdMisc        14198      0.34%     81.08% # Class of committed instruction. (Count)
system.cpu.commitStats0.committedInstType::SimdMult            0      0.00%     81.08% # Class of committed instruction. (Count)
system.cpu.commitStats0.committedInstType::SimdMultAcc            0      0.00%     81.08% # Class of committed instruction. (Count)
system.cpu.commitStats0.committedInstType::SimdMatMultAcc            0      0.00%     81.08% # Class of committed instruction. (Count)
system.cpu.commitStats0.committedInstType::SimdShift         1562      0.04%     81.12% # Class of committed instruction. (Count)
system.cpu.commitStats0.committedInstType::SimdShiftAcc            0      0.00%     81.12% # Class of committed instruction. (Count)
system.cpu.commitStats0.committedInstType::SimdDiv            0      0.00%     81.12% # Class of committed instruction. (Count)
system.cpu.commitStats0.committedInstType::SimdSqrt            0      0.00%     81.12% # Class of committed instruction. (Count)
system.cpu.commitStats0.committedInstType::SimdFloatAdd            1      0.00%     81.12% # Class of committed instruction. (Count)
system.cpu.commitStats0.committedInstType::SimdFloatAlu            0      0.00%     81.12% # Class of committed instruction. (Count)
system.cpu.commitStats0.committedInstType::SimdFloatCmp            0      0.00%     81.12% # Class of committed instruction. (Count)
system.cpu.commitStats0.committedInstType::SimdFloatCvt            2      0.00%     81.12% # Class of committed instruction. (Count)
system.cpu.commitStats0.committedInstType::SimdFloatDiv            1      0.00%     81.12% # Class of committed instruction. (Count)
system.cpu.commitStats0.committedInstType::SimdFloatMisc            0      0.00%     81.12% # Class of committed instruction. (Count)
system.cpu.commitStats0.committedInstType::SimdFloatMult            0      0.00%     81.12% # Class of committed instruction. (Count)
system.cpu.commitStats0.committedInstType::SimdFloatMultAcc            0      0.00%     81.12% # Class of committed instruction. (Count)
system.cpu.commitStats0.committedInstType::SimdFloatMatMultAcc            0      0.00%     81.12% # Class of committed instruction. (Count)
system.cpu.commitStats0.committedInstType::SimdFloatSqrt            0      0.00%     81.12% # Class of committed instruction. (Count)
system.cpu.commitStats0.committedInstType::SimdReduceAdd            0      0.00%     81.12% # Class of committed instruction. (Count)
system.cpu.commitStats0.committedInstType::SimdReduceAlu            0      0.00%     81.12% # Class of committed instruction. (Count)
system.cpu.commitStats0.committedInstType::SimdReduceCmp            0      0.00%     81.12% # Class of committed instruction. (Count)
system.cpu.commitStats0.committedInstType::SimdFloatReduceAdd            0      0.00%     81.12% # Class of committed instruction. (Count)
system.cpu.commitStats0.committedInstType::SimdFloatReduceCmp            0      0.00%     81.12% # Class of committed instruction. (Count)
system.cpu.commitStats0.committedInstType::SimdAes            0      0.00%     81.12% # Class of committed instruction. (Count)
system.cpu.commitStats0.committedInstType::SimdAesMix            0      0.00%     81.12% # Class of committed instruction. (Count)
system.cpu.commitStats0.committedInstType::SimdSha1Hash            0      0.00%     81.12% # Class of committed instruction. (Count)
system.cpu.commitStats0.committedInstType::SimdSha1Hash2            0      0.00%     81.12% # Class of committed instruction. (Count)
system.cpu.commitStats0.committedInstType::SimdSha256Hash            0      0.00%     81.12% # Class of committed instruction. (Count)
system.cpu.commitStats0.committedInstType::SimdSha256Hash2            0      0.00%     81.12% # Class of committed instruction. (Count)
system.cpu.commitStats0.committedInstType::SimdShaSigma2            0      0.00%     81.12% # Class of committed instruction. (Count)
system.cpu.commitStats0.committedInstType::SimdShaSigma3            0      0.00%     81.12% # Class of committed instruction. (Count)
system.cpu.commitStats0.committedInstType::SimdPredAlu            0      0.00%     81.12% # Class of committed instruction. (Count)
system.cpu.commitStats0.committedInstType::Matrix            0      0.00%     81.12% # Class of committed instruction. (Count)
system.cpu.commitStats0.committedInstType::MatrixMov            0      0.00%     81.12% # Class of committed instruction. (Count)
system.cpu.commitStats0.committedInstType::MatrixOP            0      0.00%     81.12% # Class of committed instruction. (Count)
system.cpu.commitStats0.committedInstType::MemRead       545239     12.92%     94.04% # Class of committed instruction. (Count)
system.cpu.commitStats0.committedInstType::MemWrite       217004      5.14%     99.18% # Class of committed instruction. (Count)
system.cpu.commitStats0.committedInstType::FloatMemRead        18422      0.44%     99.62% # Class of committed instruction. (Count)
system.cpu.commitStats0.committedInstType::FloatMemWrite        16051      0.38%    100.00% # Class of committed instruction. (Count)
system.cpu.commitStats0.committedInstType::IprAccess            0      0.00%    100.00% # Class of committed instruction. (Count)
system.cpu.commitStats0.committedInstType::InstPrefetch            0      0.00%    100.00% # Class of committed instruction. (Count)
system.cpu.commitStats0.committedInstType::SimdUnitStrideLoad            0      0.00%    100.00% # Class of committed instruction. (Count)
system.cpu.commitStats0.committedInstType::SimdUnitStrideStore            0      0.00%    100.00% # Class of committed instruction. (Count)
system.cpu.commitStats0.committedInstType::SimdUnitStrideMaskLoad            0      0.00%    100.00% # Class of committed instruction. (Count)
system.cpu.commitStats0.committedInstType::SimdUnitStrideMaskStore            0      0.00%    100.00% # Class of committed instruction. (Count)
system.cpu.commitStats0.committedInstType::SimdStridedLoad            0      0.00%    100.00% # Class of committed instruction. (Count)
system.cpu.commitStats0.committedInstType::SimdStridedStore            0      0.00%    100.00% # Class of committed instruction. (Count)
system.cpu.commitStats0.committedInstType::SimdIndexedLoad            0      0.00%    100.00% # Class of committed instruction. (Count)
system.cpu.commitStats0.committedInstType::SimdIndexedStore            0      0.00%    100.00% # Class of committed instruction. (Count)
system.cpu.commitStats0.committedInstType::SimdWholeRegisterLoad            0      0.00%    100.00% # Class of committed instruction. (Count)
system.cpu.commitStats0.committedInstType::SimdWholeRegisterStore            0      0.00%    100.00% # Class of committed instruction. (Count)
system.cpu.commitStats0.committedInstType::SimdUnitStrideFaultOnlyFirstLoad            0      0.00%    100.00% # Class of committed instruction. (Count)
system.cpu.commitStats0.committedInstType::SimdUnitStrideSegmentedLoad            0      0.00%    100.00% # Class of committed instruction. (Count)
system.cpu.commitStats0.committedInstType::SimdUnitStrideSegmentedStore            0      0.00%    100.00% # Class of committed instruction. (Count)
system.cpu.commitStats0.committedInstType::SimdExt            0      0.00%    100.00% # Class of committed instruction. (Count)
system.cpu.commitStats0.committedInstType::SimdFloatExt            0      0.00%    100.00% # Class of committed instruction. (Count)
system.cpu.commitStats0.committedInstType::SimdConfig            0      0.00%    100.00% # Class of committed instruction. (Count)
system.cpu.commitStats0.committedInstType::total      4218799                       # Class of committed instruction. (Count)
system.cpu.commitStats0.committedControl::IsControl       400288                       # Class of control type instructions committed (Count)
system.cpu.commitStats0.committedControl::IsDirectControl       381356                       # Class of control type instructions committed (Count)
system.cpu.commitStats0.committedControl::IsIndirectControl        18699                       # Class of control type instructions committed (Count)
system.cpu.commitStats0.committedControl::IsCondControl       353491                       # Class of control type instructions committed (Count)
system.cpu.commitStats0.committedControl::IsUncondControl        46564                       # Class of control type instructions committed (Count)
system.cpu.commitStats0.committedControl::IsCall        12692                       # Class of control type instructions committed (Count)
system.cpu.commitStats0.committedControl::IsReturn        12685                       # Class of control type instructions committed (Count)
system.cpu.decode.idleCycles                   255125                       # Number of cycles decode is idle (Cycle)
system.cpu.decode.blockedCycles                544110                       # Number of cycles decode is blocked (Cycle)
system.cpu.decode.runCycles                    512589                       # Number of cycles decode is running (Cycle)
system.cpu.decode.unblockCycles                217963                       # Number of cycles decode is unblocking (Cycle)
system.cpu.decode.squashCycles                  17791                       # Number of cycles decode is squashing (Cycle)
system.cpu.decode.branchResolved               265595                       # Number of times decode resolved a branch (Count)
system.cpu.decode.branchMispred                  1729                       # Number of times decode detected a branch misprediction (Count)
system.cpu.decode.decodedInsts                5389725                       # Number of instructions handled by decode (Count)
system.cpu.decode.squashedInsts                  8890                       # Number of squashed instructions handled by decode (Count)
system.cpu.executeStats0.numInsts             4818433                       # Number of executed instructions (Count)
system.cpu.executeStats0.numNop                     0                       # Number of nop insts executed (Count)
system.cpu.executeStats0.numBranches           440053                       # Number of branches executed (Count)
system.cpu.executeStats0.numLoadInsts          647305                       # Number of load instructions executed (Count)
system.cpu.executeStats0.numStoreInsts         280902                       # Number of stores executed (Count)
system.cpu.executeStats0.instRate            3.107546                       # Inst execution rate ((Count/Cycle))
system.cpu.executeStats0.numCCRegReads        2359758                       # Number of times the CC registers were read (Count)
system.cpu.executeStats0.numCCRegWrites       2181691                       # Number of times the CC registers were written (Count)
system.cpu.executeStats0.numFpRegReads         156968                       # Number of times the floating registers were read (Count)
system.cpu.executeStats0.numFpRegWrites         88739                       # Number of times the floating registers were written (Count)
system.cpu.executeStats0.numIntRegReads       5973987                       # Number of times the integer registers were read (Count)
system.cpu.executeStats0.numIntRegWrites      3695165                       # Number of times the integer registers were written (Count)
system.cpu.executeStats0.numMemRefs            928207                       # Number of memory refs (Count)
system.cpu.executeStats0.numMiscRegReads      1828013                       # Number of times the Misc registers were read (Count)
system.cpu.executeStats0.numMiscRegWrites          963                       # Number of times the Misc registers were written (Count)
system.cpu.executeStats0.numVecAluAccesses            0                       # Number of vector alu accesses (Count)
system.cpu.executeStats0.numDiscardedOps            0                       # Number of ops (including micro ops) which were discarded before commit (Count)
system.cpu.fetch.predictedBranches             303675                       # Number of branches that fetch has predicted taken (Count)
system.cpu.fetch.cycles                       1364418                       # Number of cycles fetch has run and was not squashing or blocked (Cycle)
system.cpu.fetch.squashCycles                   38908                       # Number of cycles fetch has spent squashing (Cycle)
system.cpu.fetch.miscStallCycles                  301                       # Number of cycles fetch has spent waiting on interrupts, or bad addresses, or out of MSHRs (Cycle)
system.cpu.fetch.pendingTrapStallCycles          2765                       # Number of stall cycles due to pending traps (Cycle)
system.cpu.fetch.cacheLines                    268451                       # Number of cache lines fetched (Count)
[...]
system.mem_ctrl.dram.bwRead::total          164767514                       # Total read bandwidth from this memory ((Byte/Second))
system.mem_ctrl.dram.bwInstRead::cpu.inst     36381103                       # Instruction read bandwidth from this memory ((Byte/Second))
system.mem_ctrl.dram.bwInstRead::total       36381103                       # Instruction read bandwidth from this memory ((Byte/Second))
system.mem_ctrl.dram.bwWrite::writebacks     33585652                       # Write bandwidth from this memory ((Byte/Second))
system.mem_ctrl.dram.bwWrite::total          33585652                       # Write bandwidth from this memory ((Byte/Second))
system.mem_ctrl.dram.bwTotal::writebacks     33585652                       # Total bandwidth to/from this memory ((Byte/Second))
system.mem_ctrl.dram.bwTotal::cpu.inst       36381103                       # Total bandwidth to/from this memory ((Byte/Second))
system.mem_ctrl.dram.bwTotal::cpu.data      128386411                       # Total bandwidth to/from this memory ((Byte/Second))
system.mem_ctrl.dram.bwTotal::total         198353166                       # Total bandwidth to/from this memory ((Byte/Second))
system.mem_ctrl.dram.readBursts                 50734                       # Number of DRAM read bursts (Count)
system.mem_ctrl.dram.writeBursts                 9286                       # Number of DRAM write bursts (Count)
system.mem_ctrl.dram.perBankRdBursts::0          4107                       # Per bank write bursts (Count)
system.mem_ctrl.dram.perBankRdBursts::1          3057                       # Per bank write bursts (Count)
system.mem_ctrl.dram.perBankRdBursts::2          1815                       # Per bank write bursts (Count)
system.mem_ctrl.dram.perBankRdBursts::3          3249                       # Per bank write bursts (Count)
system.mem_ctrl.dram.perBankRdBursts::4          2194                       # Per bank write bursts (Count)
system.mem_ctrl.dram.perBankRdBursts::5          4719                       # Per bank write bursts (Count)
system.mem_ctrl.dram.perBankRdBursts::6          3507                       # Per bank write bursts (Count)
system.mem_ctrl.dram.perBankRdBursts::7          4182                       # Per bank write bursts (Count)
system.mem_ctrl.dram.perBankRdBursts::8          3381                       # Per bank write bursts (Count)
system.mem_ctrl.dram.perBankRdBursts::9          3587                       # Per bank write bursts (Count)
system.mem_ctrl.dram.perBankRdBursts::10         2281                       # Per bank write bursts (Count)
system.mem_ctrl.dram.perBankRdBursts::11         1533                       # Per bank write bursts (Count)
system.mem_ctrl.dram.perBankRdBursts::12         3522                       # Per bank write bursts (Count)
system.mem_ctrl.dram.perBankRdBursts::13         3794                       # Per bank write bursts (Count)
system.mem_ctrl.dram.perBankRdBursts::14         3997                       # Per bank write bursts (Count)
system.mem_ctrl.dram.perBankRdBursts::15         1809                       # Per bank write bursts (Count)
system.mem_ctrl.dram.perBankWrBursts::0           500                       # Per bank write bursts (Count)
system.mem_ctrl.dram.perBankWrBursts::1           409                       # Per bank write bursts (Count)
system.mem_ctrl.dram.perBankWrBursts::2           426                       # Per bank write bursts (Count)
system.mem_ctrl.dram.perBankWrBursts::3           427                       # Per bank write bursts (Count)
system.mem_ctrl.dram.perBankWrBursts::4           420                       # Per bank write bursts (Count)
system.mem_ctrl.dram.perBankWrBursts::5           676                       # Per bank write bursts (Count)
system.mem_ctrl.dram.perBankWrBursts::6           801                       # Per bank write bursts (Count)
system.mem_ctrl.dram.perBankWrBursts::7           572                       # Per bank write bursts (Count)
system.mem_ctrl.dram.perBankWrBursts::8           526                       # Per bank write bursts (Count)
system.mem_ctrl.dram.perBankWrBursts::9           692                       # Per bank write bursts (Count)
system.mem_ctrl.dram.perBankWrBursts::10          547                       # Per bank write bursts (Count)
system.mem_ctrl.dram.perBankWrBursts::11          457                       # Per bank write bursts (Count)
system.mem_ctrl.dram.perBankWrBursts::12          579                       # Per bank write bursts (Count)
system.mem_ctrl.dram.perBankWrBursts::13         1395                       # Per bank write bursts (Count)
system.mem_ctrl.dram.perBankWrBursts::14          437                       # Per bank write bursts (Count)
system.mem_ctrl.dram.perBankWrBursts::15          422                       # Per bank write bursts (Count)
system.mem_ctrl.dram.totQLat                720640499                       # Total ticks spent queuing (Tick)
system.mem_ctrl.dram.totBusLat              253670000                       # Total ticks spent in databus transfers (Tick)
system.mem_ctrl.dram.totMemAccLat          1671902999                       # Total ticks spent from burst creation until serviced by the DRAM (Tick)
system.mem_ctrl.dram.avgQLat                 14204.29                       # Average queueing delay per DRAM burst ((Tick/Count))
system.mem_ctrl.dram.avgBusLat                5000.00                       # Average bus latency per DRAM burst ((Tick/Count))
system.mem_ctrl.dram.avgMemAccLat            32954.29                       # Average memory access latency per DRAM burst ((Tick/Count))
system.mem_ctrl.dram.readRowHits                25863                       # Number of row buffer hits during reads (Count)
system.mem_ctrl.dram.writeRowHits                8241                       # Number of row buffer hits during writes (Count)
system.mem_ctrl.dram.readRowHitRate             50.98                       # Row buffer hit rate for reads (Ratio)
system.mem_ctrl.dram.writeRowHitRate            88.75                       # Row buffer hit rate for writes (Ratio)
system.mem_ctrl.dram.bytesPerActivate::samples        25915                       # Bytes accessed per row activation (Byte)
system.mem_ctrl.dram.bytesPerActivate::mean   148.221185                       # Bytes accessed per row activation (Byte)
system.mem_ctrl.dram.bytesPerActivate::gmean   102.325031                       # Bytes accessed per row activation (Byte)
system.mem_ctrl.dram.bytesPerActivate::stdev   191.678237                       # Bytes accessed per row activation (Byte)
system.mem_ctrl.dram.bytesPerActivate::0-127        15744     60.75%     60.75% # Bytes accessed per row activation (Byte)
system.mem_ctrl.dram.bytesPerActivate::128-255         6766     26.11%     86.86% # Bytes accessed per row activation (Byte)
system.mem_ctrl.dram.bytesPerActivate::256-383         1325      5.11%     91.97% # Bytes accessed per row activation (Byte)
system.mem_ctrl.dram.bytesPerActivate::384-511          539      2.08%     94.05% # Bytes accessed per row activation (Byte)
system.mem_ctrl.dram.bytesPerActivate::512-639          337      1.30%     95.35% # Bytes accessed per row activation (Byte)
system.mem_ctrl.dram.bytesPerActivate::640-767          243      0.94%     96.29% # Bytes accessed per row activation (Byte)
system.mem_ctrl.dram.bytesPerActivate::768-895          182      0.70%     96.99% # Bytes accessed per row activation (Byte)
system.mem_ctrl.dram.bytesPerActivate::896-1023          133      0.51%     97.51% # Bytes accessed per row activation (Byte)
system.mem_ctrl.dram.bytesPerActivate::1024-1151          646      2.49%    100.00% # Bytes accessed per row activation (Byte)
system.mem_ctrl.dram.bytesPerActivate::total        25915                       # Bytes accessed per row activation (Byte)
system.mem_ctrl.dram.dramBytesRead            3246976                       # Total bytes read (Byte)
system.mem_ctrl.dram.dramBytesWritten          594304                       # Total bytes written (Byte)
system.mem_ctrl.dram.avgRdBW               157.059129                       # Average DRAM read bandwidth in MiBytes/s ((Byte/Second))
system.mem_ctrl.dram.avgWrBW                28.747015                       # Average DRAM write bandwidth in MiBytes/s ((Byte/Second))
system.mem_ctrl.dram.peakBW                  12800.00                       # Theoretical peak bandwidth in MiByte/s ((Byte/Second))
system.mem_ctrl.dram.busUtil                     1.45                       # Data bus utilization in percentage (Ratio)
system.mem_ctrl.dram.busUtilRead                 1.23                       # Data bus utilization in percentage for reads (Ratio)
system.mem_ctrl.dram.busUtilWrite                0.22                       # Data bus utilization in percentage for writes (Ratio)
system.mem_ctrl.dram.pageHitRate                56.82                       # Row buffer hit rate, read and write combined (Ratio)
system.mem_ctrl.dram.power_state.pwrStateResidencyTicks::UNDEFINED  20673589814                       # Cumulative time (in ticks) in various power states (Tick)
system.mem_ctrl.dram.rank0.actEnergy         99667260                       # Energy for activate commands per rank (pJ) (Joule)
system.mem_ctrl.dram.rank0.preEnergy         52970610                       # Energy for precharge commands per rank (pJ) (Joule)
system.mem_ctrl.dram.rank0.readEnergy       191566200                       # Energy for read commands per rank (pJ) (Joule)
system.mem_ctrl.dram.rank0.writeEnergy       22085820                       # Energy for write commands per rank (pJ) (Joule)
system.mem_ctrl.dram.rank0.refreshEnergy 1631869200.000000                       # Energy for refresh commands per rank (pJ) (Joule)
system.mem_ctrl.dram.rank0.actBackEnergy   7588885950                       # Energy for active background per rank (pJ) (Joule)
system.mem_ctrl.dram.rank0.preBackEnergy   1548017760                       # Energy for precharge background per rank (pJ) (Joule)
system.mem_ctrl.dram.rank0.actPowerDownEnergy            0                       # Energy for active power-down per rank (pJ) (Joule)
system.mem_ctrl.dram.rank0.prePowerDownEnergy            0                       # Energy for precharge power-down per rank (pJ) (Joule)
system.mem_ctrl.dram.rank0.selfRefreshEnergy            0                       # Energy for self refresh per rank (pJ) (Joule)
system.mem_ctrl.dram.rank0.totalEnergy    11135062800                       # Total energy per rank (pJ) (Joule)
system.mem_ctrl.dram.rank0.averagePower    538.612931                       # Core power per rank (mW) (Watt)
system.mem_ctrl.dram.rank0.totalIdleTime            0                       # Total Idle time Per DRAM Rank (Tick)
system.mem_ctrl.dram.rank0.pwrStateTime::IDLE   3954058954                       # Time in different power states (Tick)
system.mem_ctrl.dram.rank0.pwrStateTime::REF    690300000                       # Time in different power states (Tick)
system.mem_ctrl.dram.rank0.pwrStateTime::SREF            0                       # Time in different power states (Tick)
system.mem_ctrl.dram.rank0.pwrStateTime::PRE_PDN            0                       # Time in different power states (Tick)
system.mem_ctrl.dram.rank0.pwrStateTime::ACT  16029230860                       # Time in different power states (Tick)
system.mem_ctrl.dram.rank0.pwrStateTime::ACT_PDN            0                       # Time in different power states (Tick)
system.mem_ctrl.dram.rank1.actEnergy         85372980                       # Energy for activate commands per rank (pJ) (Joule)
system.mem_ctrl.dram.rank1.preEnergy         45376815                       # Energy for precharge commands per rank (pJ) (Joule)
system.mem_ctrl.dram.rank1.readEnergy       170674560                       # Energy for read commands per rank (pJ) (Joule)
system.mem_ctrl.dram.rank1.writeEnergy       26387100                       # Energy for write commands per rank (pJ) (Joule)
system.mem_ctrl.dram.rank1.refreshEnergy 1631869200.000000                       # Energy for refresh commands per rank (pJ) (Joule)
system.mem_ctrl.dram.rank1.actBackEnergy   7491373200                       # Energy for active background per rank (pJ) (Joule)
system.mem_ctrl.dram.rank1.preBackEnergy   1630133760                       # Energy for precharge background per rank (pJ) (Joule)
system.mem_ctrl.dram.rank1.actPowerDownEnergy            0                       # Energy for active power-down per rank (pJ) (Joule)
system.mem_ctrl.dram.rank1.prePowerDownEnergy            0                       # Energy for precharge power-down per rank (pJ) (Joule)
system.mem_ctrl.dram.rank1.selfRefreshEnergy            0                       # Energy for self refresh per rank (pJ) (Joule)
system.mem_ctrl.dram.rank1.totalEnergy    11081187615                       # Total energy per rank (pJ) (Joule)
system.mem_ctrl.dram.rank1.averagePower    536.006940                       # Core power per rank (mW) (Watt)
system.mem_ctrl.dram.rank1.totalIdleTime            0                       # Total Idle time Per DRAM Rank (Tick)
system.mem_ctrl.dram.rank1.pwrStateTime::IDLE   4169519995                       # Time in different power states (Tick)
system.mem_ctrl.dram.rank1.pwrStateTime::REF    690300000                       # Time in different power states (Tick)
system.mem_ctrl.dram.rank1.pwrStateTime::SREF            0                       # Time in different power states (Tick)
system.mem_ctrl.dram.rank1.pwrStateTime::PRE_PDN            0                       # Time in different power states (Tick)
system.mem_ctrl.dram.rank1.pwrStateTime::ACT  15813769819                       # Time in different power states (Tick)
system.mem_ctrl.dram.rank1.pwrStateTime::ACT_PDN            0                       # Time in different power states (Tick)
system.mem_ctrl.power_state.pwrStateResidencyTicks::UNDEFINED  20673589814                       # Cumulative time (in ticks) in various power states (Tick)
system.membus.transDist::ReadResp               44099                       # Transaction distribution (Count)
system.membus.transDist::WritebackDirty         10849                       # Transaction distribution (Count)
system.membus.transDist::CleanEvict             42247                       # Transaction distribution (Count)
system.membus.transDist::UpgradeReq                 3                       # Transaction distribution (Count)
system.membus.transDist::ReadExReq               9128                       # Transaction distribution (Count)
system.membus.transDist::ReadExResp              9128                       # Transaction distribution (Count)
system.membus.transDist::ReadSharedReq          44099                       # Transaction distribution (Count)
system.membus.pktCount_system.cpu.l1d.mem_side_port::system.mem_ctrl.port       124355                       # Packet count per connected requestor and responder (Count)
system.membus.pktCount_system.cpu.l1d.mem_side_port::total       124355                       # Packet count per connected requestor and responder (Count)
system.membus.pktCount_system.cpu.l1i.mem_side_port::system.mem_ctrl.port        35195                       # Packet count per connected requestor and responder (Count)
system.membus.pktCount_system.cpu.l1i.mem_side_port::total        35195                       # Packet count per connected requestor and responder (Count)
system.membus.pktCount::total                  159550                       # Packet count per connected requestor and responder (Count)
system.membus.pktSize_system.cpu.l1d.mem_side_port::system.mem_ctrl.port      3348544                       # Cumulative packet size per connected requestor and responder (Byte)
system.membus.pktSize_system.cpu.l1d.mem_side_port::total      3348544                       # Cumulative packet size per connected requestor and responder (Byte)
system.membus.pktSize_system.cpu.l1i.mem_side_port::system.mem_ctrl.port       752128                       # Cumulative packet size per connected requestor and responder (Byte)
system.membus.pktSize_system.cpu.l1i.mem_side_port::total       752128                       # Cumulative packet size per connected requestor and responder (Byte)
system.membus.pktSize::total                  4100672                       # Cumulative packet size per connected requestor and responder (Byte)
system.membus.snoops                                3                       # Total snoops (Count)
system.membus.snoopTraffic                        192                       # Total snoop traffic (Byte)
system.membus.snoopFanout::samples              53230                       # Request fanout histogram (Count)
system.membus.snoopFanout::mean              0.002048                       # Request fanout histogram (Count)
system.membus.snoopFanout::stdev             0.045206                       # Request fanout histogram (Count)
system.membus.snoopFanout::underflows               0      0.00%      0.00% # Request fanout histogram (Count)
system.membus.snoopFanout::0                    53121     99.80%     99.80% # Request fanout histogram (Count)
system.membus.snoopFanout::1                      109      0.20%    100.00% # Request fanout histogram (Count)
system.membus.snoopFanout::2                        0      0.00%    100.00% # Request fanout histogram (Count)
system.membus.snoopFanout::overflows                0      0.00%    100.00% # Request fanout histogram (Count)
system.membus.snoopFanout::min_value                0                       # Request fanout histogram (Count)
system.membus.snoopFanout::max_value                1                       # Request fanout histogram (Count)
system.membus.snoopFanout::total                53230                       # Request fanout histogram (Count)
system.membus.power_state.pwrStateResidencyTicks::UNDEFINED  20673589814                       # Cumulative time (in ticks) in various power states (Tick)
system.membus.reqLayer2.occupancy          1996243426                       # Layer occupancy (ticks) (Tick)
system.membus.reqLayer2.utilization               0.1                       # Layer utilization (Ratio)
system.membus.respLayer2.occupancy         2807195226                       # Layer occupancy (ticks) (Tick)
system.membus.respLayer2.utilization              0.1                       # Layer utilization (Ratio)
system.membus.respLayer3.occupancy          802792918                       # Layer occupancy (ticks) (Tick)
system.membus.respLayer3.utilization              0.0                       # Layer utilization (Ratio)
system.membus.snoop_filter.totRequests         106326                       # Total number of requests made to the snoop filter. (Count)
system.membus.snoop_filter.hitSingleRequests        53097                       # Number of requests hitting in the snoop filter with a single holder of the requested data. (Count)
system.membus.snoop_filter.hitMultiRequests          108                       # Number of requests hitting in the snoop filter with multiple (>1) holders of the requested data. (Count)
system.membus.snoop_filter.totSnoops                0                       # Total number of snoops made to the snoop filter. (Count)
system.membus.snoop_filter.hitSingleSnoops            0                       # Number of snoops hitting in the snoop filter with a single holder of the requested data. (Count)
system.membus.snoop_filter.hitMultiSnoops            0                       # Number of snoops hitting in the snoop filter with multiple (>1) holders of the requested data. (Count)
system.workload.inst.arm                            0                       # number of arm instructions executed (Count)
system.workload.inst.quiesce                        0                       # number of quiesce instructions executed (Count)

---------- End Simulation Statistics   ----------
