
---------- Begin Simulation Statistics ----------
simSeconds                                   2.102707                       # Number of seconds simulated (Second)
simTicks                                 2102706577688                       # Number of ticks simulated (Tick)
finalTick                                2102706577688                       # Number of ticks from beginning of simulation (restored from checkpoints and never reset) (Tick)
simFreq                                  1000000000000                       # The number of ticks per simulated second ((Tick/Second))
hostSeconds                                    519.91                       # Real time elapsed on the host (Second)
hostTickRate                               4044367050                       # The number of ticks simulated per host second (ticks/s) ((Tick/Second))
hostMemory                                    8647928                       # Number of bytes of host memory used (Byte)
simInsts                                     56810905                       # Number of instructions simulated (Count)
simOps                                       95134141                       # Number of ops (including micro ops) simulated (Count)
hostInstRate                                   109271                       # Simulator instruction rate (inst/s) ((Count/Second))
hostOpRate                                     182982                       # Simulator op (including micro ops) rate (op/s) ((Count/Second))
system.clk_domain.clock                         13333                       # Clock period in ticks (Tick)
system.clk_domain.voltage_domain.voltage            1                       # Voltage in Volts (Volt)
system.cpu.numCycles                        157706936                       # Number of cpu cycles simulated (Cycle)
system.cpu.cpi                               2.775998                       # CPI: cycles per instruction (core level) ((Cycle/Count))
system.cpu.ipc                               0.360231                       # IPC: instructions per cycle (core level) ((Count/Cycle))
system.cpu.numWorkItemsStarted                      0                       # Number of work items this cpu started (Count)
system.cpu.numWorkItemsCompleted                    0                       # Number of work items this cpu completed (Count)
system.cpu.branchPred.lookups_0::NoBranch            0                       # Number of BP lookups (Count)
system.cpu.branchPred.lookups_0::Return             0                       # Number of BP lookups (Count)
system.cpu.branchPred.lookups_0::CallDirect            0                       # Number of BP lookups (Count)
system.cpu.branchPred.lookups_0::CallIndirect            0                       # Number of BP lookups (Count)
system.cpu.branchPred.lookups_0::DirectCond            0                       # Number of BP lookups (Count)
system.cpu.branchPred.lookups_0::DirectUncond            0                       # Number of BP lookups (Count)
system.cpu.branchPred.lookups_0::IndirectCond            0                       # Number of BP lookups (Count)
system.cpu.branchPred.lookups_0::IndirectUncond            0                       # Number of BP lookups (Count)
system.cpu.branchPred.lookups_0::total              0                       # Number of BP lookups (Count)
system.cpu.branchPred.squashes_0::NoBranch            0                       # Number of branches that got squashed (completely removed) as an earlier branch was mispredicted. (Count)
system.cpu.branchPred.squashes_0::Return            0                       # Number of branches that got squashed (completely removed) as an earlier branch was mispredicted. (Count)
system.cpu.branchPred.squashes_0::CallDirect            0                       # Number of branches that got squashed (completely removed) as an earlier branch was mispredicted. (Count)
system.cpu.branchPred.squashes_0::CallIndirect            0                       # Number of branches that got squashed (completely removed) as an earlier branch was mispredicted. (Count)
system.cpu.branchPred.squashes_0::DirectCond            0                       # Number of branches that got squashed (completely removed) as an earlier branch was mispredicted. (Count)
system.cpu.branchPred.squashes_0::DirectUncond            0                       # Number of branches that got squashed (completely removed) as an earlier branch was mispredicted. (Count)
system.cpu.branchPred.squashes_0::IndirectCond            0                       # Number of branches that got squashed (completely removed) as an earlier branch was mispredicted. (Count)
system.cpu.branchPred.squashes_0::IndirectUncond            0                       # Number of branches that got squashed (completely removed) as an earlier branch was mispredicted. (Count)
system.cpu.branchPred.squashes_0::total             0                       # Number of branches that got squashed (completely removed) as an earlier branch was mispredicted. (Count)
system.cpu.branchPred.corrected_0::NoBranch            0                       # Number of branches that got corrected but not yet commited. Branches get corrected by decode or after execute. Also a branch misprediction can be detected out-of-order. Therefore, a corrected branch might not end up beeing committed in case an even earlier branch was mispredicted (Count)
system.cpu.branchPred.corrected_0::Return            0                       # Number of branches that got corrected but not yet commited. Branches get corrected by decode or after execute. Also a branch misprediction can be detected out-of-order. Therefore, a corrected branch might not end up beeing committed in case an even earlier branch was mispredicted (Count)
system.cpu.branchPred.corrected_0::CallDirect            0                       # Number of branches that got corrected but not yet commited. Branches get corrected by decode or after execute. Also a branch misprediction can be detected out-of-order. Therefore, a corrected branch might not end up beeing committed in case an even earlier branch was mispredicted (Count)
system.cpu.branchPred.corrected_0::CallIndirect            0                       # Number of branches that got corrected but not yet commited. Branches get corrected by decode or after execute. Also a branch misprediction can be detected out-of-order. Therefore, a corrected branch might not end up beeing committed in case an even earlier branch was mispredicted (Count)
system.cpu.branchPred.corrected_0::DirectCond            0                       # Number of branches that got corrected but not yet commited. Branches get corrected by decode or after execute. Also a branch misprediction can be detected out-of-order. Therefore, a corrected branch might not end up beeing committed in case an even earlier branch was mispredicted (Count)
system.cpu.branchPred.corrected_0::DirectUncond            0                       # Number of branches that got corrected but not yet commited. Branches get corrected by decode or after execute. Also a branch misprediction can be detected out-of-order. Therefore, a corrected branch might not end up beeing committed in case an even earlier branch was mispredicted (Count)
system.cpu.branchPred.corrected_0::IndirectCond            0                       # Number of branches that got corrected but not yet commited. Branches get corrected by decode or after execute. Also a branch misprediction can be detected out-of-order. Therefore, a corrected branch might not end up beeing committed in case an even earlier branch was mispredicted (Count)
system.cpu.branchPred.corrected_0::IndirectUncond            0                       # Number of branches that got corrected but not yet commited. Branches get corrected by decode or after execute. Also a branch misprediction can be detected out-of-order. Therefore, a corrected branch might not end up beeing committed in case an even earlier branch was mispredicted (Count)
system.cpu.branchPred.corrected_0::total            0                       # Number of branches that got corrected but not yet commited. Branches get corrected by decode or after execute. Also a branch misprediction can be detected out-of-order. Therefore, a corrected branch might not end up beeing committed in case an even earlier branch was mispredicted (Count)
system.cpu.branchPred.earlyResteers_0::NoBranch            0                       # Number of branches that got redirected after decode. (Count)
system.cpu.branchPred.earlyResteers_0::Return            0                       # Number of branches that got redirected after decode. (Count)
system.cpu.branchPred.earlyResteers_0::CallDirect            0                       # Number of branches that got redirected after decode. (Count)
system.cpu.branchPred.earlyResteers_0::CallIndirect            0                       # Number of branches that got redirected after decode. (Count)
system.cpu.branchPred.earlyResteers_0::DirectCond            0                       # Number of branches that got redirected after decode. (Count)
system.cpu.branchPred.earlyResteers_0::DirectUncond            0                       # Number of branches that got redirected after decode. (Count)
system.cpu.branchPred.earlyResteers_0::IndirectCond            0                       # Number of branches that got redirected after decode. (Count)
system.cpu.branchPred.earlyResteers_0::IndirectUncond            0                       # Number of branches that got redirected after decode. (Count)
system.cpu.branchPred.earlyResteers_0::total            0                       # Number of branches that got redirected after decode. (Count)
system.cpu.branchPred.committed_0::NoBranch            0                       # Number of branches finally committed  (Count)
system.cpu.branchPred.committed_0::Return            0                       # Number of branches finally committed  (Count)
system.cpu.branchPred.committed_0::CallDirect            0                       # Number of branches finally committed  (Count)
system.cpu.branchPred.committed_0::CallIndirect            0                       # Number of branches finally committed  (Count)
system.cpu.branchPred.committed_0::DirectCond            0                       # Number of branches finally committed  (Count)
system.cpu.branchPred.committed_0::DirectUncond            0                       # Number of branches finally committed  (Count)
system.cpu.branchPred.committed_0::IndirectCond            0                       # Number of branches finally committed  (Count)
system.cpu.branchPred.committed_0::IndirectUncond            0                       # Number of branches finally committed  (Count)
system.cpu.branchPred.committed_0::total            0                       # Number of branches finally committed  (Count)
system.cpu.branchPred.mispredicted_0::NoBranch            0                       # Number of committed branches that were mispredicted. (Count)
system.cpu.branchPred.mispredicted_0::Return            0                       # Number of committed branches that were mispredicted. (Count)
system.cpu.branchPred.mispredicted_0::CallDirect            0                       # Number of committed branches that were mispredicted. (Count)
system.cpu.branchPred.mispredicted_0::CallIndirect            0                       # Number of committed branches that were mispredicted. (Count)
system.cpu.branchPred.mispredicted_0::DirectCond            0                       # Number of committed branches that were mispredicted. (Count)
system.cpu.branchPred.mispredicted_0::DirectUncond            0                       # Number of committed branches that were mispredicted. (Count)
system.cpu.branchPred.mispredicted_0::IndirectCond            0                       # Number of committed branches that were mispredicted. (Count)
system.cpu.branchPred.mispredicted_0::IndirectUncond            0                       # Number of committed branches that were mispredicted. (Count)
system.cpu.branchPred.mispredicted_0::total            0                       # Number of committed branches that were mispredicted. (Count)
system.cpu.branchPred.targetProvider_0::NoTarget            0                       # The component providing the target for taken branches (Count)
system.cpu.branchPred.targetProvider_0::BTB            0                       # The component providing the target for taken branches (Count)
system.cpu.branchPred.targetProvider_0::RAS            0                       # The component providing the target for taken branches (Count)
system.cpu.branchPred.targetProvider_0::Indirect            0                       # The component providing the target for taken branches (Count)
system.cpu.branchPred.targetProvider_0::total            0                       # The component providing the target for taken branches (Count)
system.cpu.branchPred.targetWrong_0::NoBranch            0                       # Number of branches where the target was incorrect or not available at prediction time. (Count)
system.cpu.branchPred.targetWrong_0::Return            0                       # Number of branches where the target was incorrect or not available at prediction time. (Count)
system.cpu.branchPred.targetWrong_0::CallDirect            0                       # Number of branches where the target was incorrect or not available at prediction time. (Count)
system.cpu.branchPred.targetWrong_0::CallIndirect            0                       # Number of branches where the target was incorrect or not available at prediction time. (Count)
system.cpu.branchPred.targetWrong_0::DirectCond            0                       # Number of branches where the target was incorrect or not available at prediction time. (Count)
system.cpu.branchPred.targetWrong_0::DirectUncond            0                       # Number of branches where the target was incorrect or not available at prediction time. (Count)
system.cpu.branchPred.targetWrong_0::IndirectCond            0                       # Number of branches where the target was incorrect or not available at prediction time. (Count)
system.cpu.branchPred.targetWrong_0::IndirectUncond            0                       # Number of branches where the target was incorrect or not available at prediction time. (Count)
system.cpu.branchPred.targetWrong_0::total            0                       # Number of branches where the target was incorrect or not available at prediction time. (Count)
system.cpu.branchPred.condPredicted                 0                       # Number of conditional branches predicted (Count)
system.cpu.branchPred.condPredictedTaken            0                       # Number of conditional branches predicted as taken (Count)
system.cpu.branchPred.condIncorrect                 0                       # Number of conditional branches incorrect (Count)
system.cpu.branchPred.predTakenBTBMiss              0                       # Number of branches predicted taken but missed in BTB (Count)
system.cpu.branchPred.NotTakenMispredicted            0                       # Number branches predicted 'not taken' but turned out to be taken (Count)
system.cpu.branchPred.TakenMispredicted             0                       # Number branches predicted taken but are actually not taken (Count)
system.cpu.branchPred.BTBLookups                    0                       # Number of BTB lookups (Count)
system.cpu.branchPred.BTBUpdates                    0                       # Number of BTB updates (Count)
system.cpu.branchPred.BTBHits                       0                       # Number of BTB hits (Count)
system.cpu.branchPred.BTBHitRatio                 nan                       # BTB Hit Ratio (Ratio)
system.cpu.branchPred.BTBMispredicted               0                       # Number BTB mispredictions. No target found or target wrong (Count)
system.cpu.branchPred.indirectLookups               0                       # Number of indirect predictor lookups. (Count)
system.cpu.branchPred.indirectHits                  0                       # Number of indirect target hits. (Count)
system.cpu.branchPred.indirectMisses                0                       # Number of indirect misses. (Count)
system.cpu.branchPred.indirectMispredicted            0                       # Number of mispredicted indirect branches. (Count)
system.cpu.branchPred.btb.lookups::NoBranch            0                       # Number of BTB lookups (Count)
system.cpu.branchPred.btb.lookups::Return            0                       # Number of BTB lookups (Count)
system.cpu.branchPred.btb.lookups::CallDirect            0                       # Number of BTB lookups (Count)
system.cpu.branchPred.btb.lookups::CallIndirect            0                       # Number of BTB lookups (Count)
system.cpu.branchPred.btb.lookups::DirectCond            0                       # Number of BTB lookups (Count)
system.cpu.branchPred.btb.lookups::DirectUncond            0                       # Number of BTB lookups (Count)
system.cpu.branchPred.btb.lookups::IndirectCond            0                       # Number of BTB lookups (Count)
system.cpu.branchPred.btb.lookups::IndirectUncond            0                       # Number of BTB lookups (Count)
system.cpu.branchPred.btb.lookups::total            0                       # Number of BTB lookups (Count)
system.cpu.branchPred.btb.misses::NoBranch            0                       # Number of BTB misses (Count)
system.cpu.branchPred.btb.misses::Return            0                       # Number of BTB misses (Count)
system.cpu.branchPred.btb.misses::CallDirect            0                       # Number of BTB misses (Count)
system.cpu.branchPred.btb.misses::CallIndirect            0                       # Number of BTB misses (Count)
system.cpu.branchPred.btb.misses::DirectCond            0                       # Number of BTB misses (Count)
system.cpu.branchPred.btb.misses::DirectUncond            0                       # Number of BTB misses (Count)
system.cpu.branchPred.btb.misses::IndirectCond            0                       # Number of BTB misses (Count)
system.cpu.branchPred.btb.misses::IndirectUncond            0                       # Number of BTB misses (Count)
system.cpu.branchPred.btb.misses::total             0                       # Number of BTB misses (Count)
system.cpu.branchPred.btb.updates::NoBranch            0                       # Number of BTB updates (Count)
system.cpu.branchPred.btb.updates::Return            0                       # Number of BTB updates (Count)
system.cpu.branchPred.btb.updates::CallDirect            0                       # Number of BTB updates (Count)
system.cpu.branchPred.btb.updates::CallIndirect            0                       # Number of BTB updates (Count)
system.cpu.branchPred.btb.updates::DirectCond            0                       # Number of BTB updates (Count)
system.cpu.branchPred.btb.updates::DirectUncond            0                       # Number of BTB updates (Count)
system.cpu.branchPred.btb.updates::IndirectCond            0                       # Number of BTB updates (Count)
system.cpu.branchPred.btb.updates::IndirectUncond            0                       # Number of BTB updates (Count)
system.cpu.branchPred.btb.updates::total            0                       # Number of BTB updates (Count)
system.cpu.branchPred.btb.mispredict::NoBranch            0                       # Number of BTB mispredictions. No target found or target wrong. (Count)
system.cpu.branchPred.btb.mispredict::Return            0                       # Number of BTB mispredictions. No target found or target wrong. (Count)
system.cpu.branchPred.btb.mispredict::CallDirect            0                       # Number of BTB mispredictions. No target found or target wrong. (Count)
system.cpu.branchPred.btb.mispredict::CallIndirect            0                       # Number of BTB mispredictions. No target found or target wrong. (Count)
system.cpu.branchPred.btb.mispredict::DirectCond            0                       # Number of BTB mispredictions. No target found or target wrong. (Count)
system.cpu.branchPred.btb.mispredict::DirectUncond            0                       # Number of BTB mispredictions. No target found or target wrong. (Count)
system.cpu.branchPred.btb.mispredict::IndirectCond            0                       # Number of BTB mispredictions. No target found or target wrong. (Count)
system.cpu.branchPred.btb.mispredict::IndirectUncond            0                       # Number of BTB mispredictions. No target found or target wrong. (Count)
system.cpu.branchPred.btb.mispredict::total            0                       # Number of BTB mispredictions. No target found or target wrong. (Count)
system.cpu.branchPred.btb.power_state.pwrStateResidencyTicks::UNDEFINED 2102706577688                       # Cumulative time (in ticks) in various power states (Tick)
system.cpu.branchPred.indirectBranchPred.lookups            0                       # Number of lookups (Count)
system.cpu.branchPred.indirectBranchPred.hits            0                       # Number of hits of a tag (Count)
system.cpu.branchPred.indirectBranchPred.misses            0                       # Number of misses (Count)
system.cpu.branchPred.indirectBranchPred.targetRecords            0                       # Number of targets that where recorded/installed in the cache (Count)
system.cpu.branchPred.indirectBranchPred.indirectRecords            0                       # Number of indirect branches/calls recorded in the indirect hist (Count)
system.cpu.branchPred.indirectBranchPred.speculativeOverflows            0                       # Number of times more than the allowed capacity for speculative branches/calls where in flight and destroy the path history (Count)
system.cpu.branchPred.ras.pushes                    0                       # Number of times a PC was pushed onto the RAS (Count)
system.cpu.branchPred.ras.pops                      0                       # Number of times a PC was poped from the RAS (Count)
system.cpu.branchPred.ras.squashes                  0                       # Number of times the stack operation was squashed due to wrong speculation. (Count)
system.cpu.branchPred.ras.used                      0                       # Number of times the RAS is the provider (Count)
system.cpu.branchPred.ras.correct                   0                       # Number of times the RAS is the provider and the prediction is correct (Count)
system.cpu.branchPred.ras.incorrect                 0                       # Number of times the RAS is the provider and the prediction is wrong (Count)
system.cpu.commitStats0.numInsts             56810905                       # Number of instructions committed (thread level) (Count)
system.cpu.commitStats0.numOps               95134141                       # Number of ops (including micro ops) committed (thread level) (Count)
system.cpu.commitStats0.numInstsNotNOP              0                       # Number of instructions committed excluding NOPs or prefetches (Count)
system.cpu.commitStats0.numOpsNotNOP                0                       # Number of Ops (including micro ops) Simulated (Count)
system.cpu.commitStats0.cpi                  2.775998                       # CPI: cycles per instruction (thread level) ((Cycle/Count))
system.cpu.commitStats0.ipc                  0.360231                       # IPC: instructions per cycle (thread level) ((Count/Cycle))
system.cpu.commitStats0.numMemRefs                  0                       # Number of memory references committed (Count)
system.cpu.commitStats0.numFpInsts                  0                       # Number of float instructions (Count)
system.cpu.commitStats0.numIntInsts                 0                       # Number of integer instructions (Count)
system.cpu.commitStats0.numLoadInsts                0                       # Number of load instructions (Count)
system.cpu.commitStats0.numStoreInsts               0                       # Number of store instructions (Count)
system.cpu.commitStats0.numVecInsts                 0                       # Number of vector instructions (Count)
system.cpu.commitStats0.committedInstType::No_OpClass      1687632      1.77%      1.77% # Class of committed instruction. (Count)
system.cpu.commitStats0.committedInstType::IntAlu     72776753     76.50%     78.27% # Class of committed instruction. (Count)
system.cpu.commitStats0.committedInstType::IntMult        42460      0.04%     78.32% # Class of committed instruction. (Count)
system.cpu.commitStats0.committedInstType::IntDiv        39630      0.04%     78.36% # Class of committed instruction. (Count)
system.cpu.commitStats0.committedInstType::FloatAdd        49308      0.05%     78.41% # Class of committed instruction. (Count)
system.cpu.commitStats0.committedInstType::FloatCmp            0      0.00%     78.41% # Class of committed instruction. (Count)
system.cpu.commitStats0.committedInstType::FloatCvt         1312      0.00%     78.41% # Class of committed instruction. (Count)
system.cpu.commitStats0.committedInstType::FloatMult            0      0.00%     78.41% # Class of committed instruction. (Count)
system.cpu.commitStats0.committedInstType::FloatMultAcc            0      0.00%     78.41% # Class of committed instruction. (Count)
system.cpu.commitStats0.committedInstType::FloatDiv            0      0.00%     78.41% # Class of committed instruction. (Count)
system.cpu.commitStats0.committedInstType::FloatMisc            0      0.00%     78.41% # Class of committed instruction. (Count)
system.cpu.commitStats0.committedInstType::FloatSqrt            0      0.00%     78.41% # Class of committed instruction. (Count)
system.cpu.commitStats0.committedInstType::SimdAdd         6606      0.01%     78.42% # Class of committed instruction. (Count)
system.cpu.commitStats0.committedInstType::SimdAddAcc            0      0.00%     78.42% # Class of committed instruction. (Count)
system.cpu.commitStats0.committedInstType::SimdAlu       153527      0.16%     78.58% # Class of committed instruction. (Count)
system.cpu.commitStats0.committedInstType::SimdCmp            6      0.00%     78.58% # Class of committed instruction. (Count)
system.cpu.commitStats0.committedInstType::SimdCvt        41764      0.04%     78.62% # Class of committed instruction. (Count)
system.cpu.commitStats0.committedInstType::SimdMisc        55626      0.06%     78.68% # Class of committed instruction. (Count)
system.cpu.commitStats0.committedInstType::SimdMult            0      0.00%     78.68% # Class of committed instruction. (Count)
system.cpu.commitStats0.committedInstType::SimdMultAcc            0      0.00%     78.68% # Class of committed instruction. (Count)
system.cpu.commitStats0.committedInstType::SimdMatMultAcc            0      0.00%     78.68% # Class of committed instruction. (Count)
system.cpu.commitStats0.committedInstType::SimdShift         1828      0.00%     78.69% # Class of committed instruction. (Count)
system.cpu.commitStats0.committedInstType::SimdShiftAcc            0      0.00%     78.69% # Class of committed instruction. (Count)
system.cpu.commitStats0.committedInstType::SimdDiv            0      0.00%     78.69% # Class of committed instruction. (Count)
system.cpu.commitStats0.committedInstType::SimdSqrt            0      0.00%     78.69% # Class of committed instruction. (Count)
system.cpu.commitStats0.committedInstType::SimdFloatAdd        14038      0.01%     78.70% # Class of committed instruction. (Count)
system.cpu.commitStats0.committedInstType::SimdFloatAlu            0      0.00%     78.70% # Class of committed instruction. (Count)
system.cpu.commitStats0.committedInstType::SimdFloatCmp            0      0.00%     78.70% # Class of committed instruction. (Count)
system.cpu.commitStats0.committedInstType::SimdFloatCvt        28076      0.03%     78.73% # Class of committed instruction. (Count)
system.cpu.commitStats0.committedInstType::SimdFloatDiv        14038      0.01%     78.74% # Class of committed instruction. (Count)
system.cpu.commitStats0.committedInstType::SimdFloatMisc            0      0.00%     78.74% # Class of committed instruction. (Count)
system.cpu.commitStats0.committedInstType::SimdFloatMult            0      0.00%     78.74% # Class of committed instruction. (Count)
system.cpu.commitStats0.committedInstType::SimdFloatMultAcc            0      0.00%     78.74% # Class of committed instruction. (Count)
system.cpu.commitStats0.committedInstType::SimdFloatMatMultAcc            0      0.00%     78.74% # Class of committed instruction. (Count)
system.cpu.commitStats0.committedInstType::SimdFloatSqrt            0      0.00%     78.74% # Class of committed instruction. (Count)
system.cpu.commitStats0.committedInstType::SimdReduceAdd            0      0.00%     78.74% # Class of committed instruction. (Count)
system.cpu.commitStats0.committedInstType::SimdReduceAlu            0      0.00%     78.74% # Class of committed instruction. (Count)
system.cpu.commitStats0.committedInstType::SimdReduceCmp            0      0.00%     78.74% # Class of committed instruction. (Count)
system.cpu.commitStats0.committedInstType::SimdFloatReduceAdd            0      0.00%     78.74% # Class of committed instruction. (Count)
system.cpu.commitStats0.committedInstType::SimdFloatReduceCmp            0      0.00%     78.74% # Class of committed instruction. (Count)
system.cpu.commitStats0.committedInstType::SimdAes            0      0.00%     78.74% # Class of committed instruction. (Count)
system.cpu.commitStats0.committedInstType::SimdAesMix            0      0.00%     78.74% # Class of committed instruction. (Count)
system.cpu.commitStats0.committedInstType::SimdSha1Hash            0      0.00%     78.74% # Class of committed instruction. (Count)
system.cpu.commitStats0.committedInstType::SimdSha1Hash2            0      0.00%     78.74% # Class of committed instruction. (Count)
system.cpu.commitStats0.committedInstType::SimdSha256Hash            0      0.00%     78.74% # Class of committed instruction. (Count)
system.cpu.commitStats0.committedInstType::SimdSha256Hash2            0      0.00%     78.74% # Class of committed instruction. (Count)
system.cpu.commitStats0.committedInstType::SimdShaSigma2            0      0.00%     78.74% # Class of committed instruction. (Count)
system.cpu.commitStats0.committedInstType::SimdShaSigma3            0      0.00%     78.74% # Class of committed instruction. (Count)
system.cpu.commitStats0.committedInstType::SimdPredAlu            0      0.00%     78.74% # Class of committed instruction. (Count)
system.cpu.commitStats0.committedInstType::Matrix            0      0.00%     78.74% # Class of committed instruction. (Count)
system.cpu.commitStats0.committedInstType::MatrixMov            0      0.00%     78.74% # Class of committed instruction. (Count)
system.cpu.commitStats0.committedInstType::MatrixOP            0      0.00%     78.74% # Class of committed instruction. (Count)
system.cpu.commitStats0.committedInstType::MemRead     12228189     12.85%     91.60% # Class of committed instruction. (Count)
system.cpu.commitStats0.committedInstType::MemWrite      7862712      8.26%     99.86% # Class of committed instruction. (Count)
system.cpu.commitStats0.committedInstType::FloatMemRead       101782      0.11%     99.97% # Class of committed instruction. (Count)
system.cpu.commitStats0.committedInstType::FloatMemWrite        28854      0.03%    100.00% # Class of committed instruction. (Count)
system.cpu.commitStats0.committedInstType::IprAccess            0      0.00%    100.00% # Class of committed instruction. (Count)
system.cpu.commitStats0.committedInstType::InstPrefetch            0      0.00%    100.00% # Class of committed instruction. (Count)
system.cpu.commitStats0.committedInstType::SimdUnitStrideLoad            0      0.00%    100.00% # Class of committed instruction. (Count)
system.cpu.commitStats0.committedInstType::SimdUnitStrideStore            0      0.00%    100.00% # Class of committed instruction. (Count)
system.cpu.commitStats0.committedInstType::SimdUnitStrideMaskLoad            0      0.00%    100.00% # Class of committed instruction. (Count)
system.cpu.commitStats0.committedInstType::SimdUnitStrideMaskStore            0      0.00%    100.00% # Class of committed instruction. (Count)
system.cpu.commitStats0.committedInstType::SimdStridedLoad            0      0.00%    100.00% # Class of committed instruction. (Count)
system.cpu.commitStats0.committedInstType::SimdStridedStore            0      0.00%    100.00% # Class of committed instruction. (Count)
system.cpu.commitStats0.committedInstType::SimdIndexedLoad            0      0.00%    100.00% # Class of committed instruction. (Count)
system.cpu.commitStats0.committedInstType::SimdIndexedStore            0      0.00%    100.00% # Class of committed instruction. (Count)
system.cpu.commitStats0.committedInstType::SimdWholeRegisterLoad            0      0.00%    100.00% # Class of committed instruction. (Count)
system.cpu.commitStats0.committedInstType::SimdWholeRegisterStore            0      0.00%    100.00% # Class of committed instruction. (Count)
system.cpu.commitStats0.committedInstType::SimdUnitStrideFaultOnlyFirstLoad            0      0.00%    100.00% # Class of committed instruction. (Count)
system.cpu.commitStats0.committedInstType::SimdUnitStrideSegmentedLoad            0      0.00%    100.00% # Class of committed instruction. (Count)
system.cpu.commitStats0.committedInstType::SimdUnitStrideSegmentedStore            0      0.00%    100.00% # Class of committed instruction. (Count)
system.cpu.commitStats0.committedInstType::SimdExt            0      0.00%    100.00% # Class of committed instruction. (Count)
system.cpu.commitStats0.committedInstType::SimdFloatExt            0      0.00%    100.00% # Class of committed instruction. (Count)
system.cpu.commitStats0.committedInstType::SimdConfig            0      0.00%    100.00% # Class of committed instruction. (Count)
system.cpu.commitStats0.committedInstType::total     95134141                       # Class of committed instruction. (Count)
system.cpu.executeStats0.numInsts                   0                       # Number of executed instructions (Count)
system.cpu.executeStats0.numNop                     0                       # Number of nop insts executed (Count)
system.cpu.executeStats0.numBranches                0                       # Number of branches executed (Count)
system.cpu.executeStats0.numLoadInsts               0                       # Number of load instructions executed (Count)
system.cpu.executeStats0.numStoreInsts              0                       # Number of stores executed (Count)
system.cpu.executeStats0.instRate                   0                       # Inst execution rate ((Count/Cycle))
system.cpu.executeStats0.numFpRegWrites             0                       # Number of times the floating registers were written (Count)
system.cpu.executeStats0.numMemRefs                 0                       # Number of memory refs (Count)
system.cpu.executeStats0.numVecAluAccesses            0                       # Number of vector alu accesses (Count)
system.cpu.executeStats0.numDiscardedOps     30537439                       # Number of ops (including micro ops) which were discarded before commit (Count)
system.cpu.fetch2.intInstructions                  91                       # Number of integer instructions successfully decoded (Count)
system.cpu.fetch2.fpInstructions                    0                       # Number of floating point instructions successfully decoded (Count)
system.cpu.fetch2.vecInstructions                   0                       # Number of SIMD instructions successfully decoded (Count)
system.cpu.fetch2.loadInstructions                  0                       # Number of memory load instructions successfully decoded (Count)
system.cpu.fetch2.storeInstructions                 0                       # Number of memory store instructions successfully decoded (Count)
system.cpu.fetch2.amoInstructions                   0                       # Number of memory atomic instructions successfully decoded (Count)
system.cpu.fetchStats0.numInsts                     0                       # Number of instructions fetched (thread level) (Count)
system.cpu.fetchStats0.numOps                       0                       # Number of ops (including micro ops) fetched (thread level) (Count)
system.cpu.fetchStats0.fetchRate                    0                       # Number of inst fetches per cycle ((Count/Cycle))
system.cpu.fetchStats0.branchRate                   0                       # Number of branch fetches per cycle (Ratio)
system.cpu.fetchStats0.numFetchSuspends             0                       # Number of times Execute suspended instruction fetching (Count)
system.cpu.interrupts.clk_domain.clock         213328                       # Clock period in ticks (Tick)
system.cpu.l1d.demandHits::cpu.data          22550029                       # number of demand (read+write) hits (Count)
system.cpu.l1d.demandHits::total             22550029                       # number of demand (read+write) hits (Count)
system.cpu.l1d.overallHits::cpu.data         22550030                       # number of overall hits (Count)
system.cpu.l1d.overallHits::total            22550030                       # number of overall hits (Count)
system.cpu.l1d.demandMisses::cpu.data          947701                       # number of demand (read+write) misses (Count)
system.cpu.l1d.demandMisses::total             947701                       # number of demand (read+write) misses (Count)
system.cpu.l1d.overallMisses::cpu.data         947702                       # number of overall misses (Count)
system.cpu.l1d.overallMisses::total            947702                       # number of overall misses (Count)
system.cpu.l1d.demandMissLatency::cpu.data 183091262604                       # number of demand (read+write) miss ticks (Tick)
system.cpu.l1d.demandMissLatency::total  183091262604                       # number of demand (read+write) miss ticks (Tick)
system.cpu.l1d.overallMissLatency::cpu.data 183091262604                       # number of overall miss ticks (Tick)
system.cpu.l1d.overallMissLatency::total 183091262604                       # number of overall miss ticks (Tick)
system.cpu.l1d.demandAccesses::cpu.data      23497730                       # number of demand (read+write) accesses (Count)
system.cpu.l1d.demandAccesses::total         23497730                       # number of demand (read+write) accesses (Count)
system.cpu.l1d.overallAccesses::cpu.data     23497732                       # number of overall (read+write) accesses (Count)
system.cpu.l1d.overallAccesses::total        23497732                       # number of overall (read+write) accesses (Count)
system.cpu.l1d.demandMissRate::cpu.data      0.040332                       # miss rate for demand accesses (Ratio)
system.cpu.l1d.demandMissRate::total         0.040332                       # miss rate for demand accesses (Ratio)
system.cpu.l1d.overallMissRate::cpu.data     0.040332                       # miss rate for overall accesses (Ratio)
system.cpu.l1d.overallMissRate::total        0.040332                       # miss rate for overall accesses (Ratio)
system.cpu.l1d.demandAvgMissLatency::cpu.data 193195.177175                       # average overall miss latency in ticks ((Tick/Count))
system.cpu.l1d.demandAvgMissLatency::total 193195.177175                       # average overall miss latency in ticks ((Tick/Count))
system.cpu.l1d.overallAvgMissLatency::cpu.data 193194.973319                       # average overall miss latency ((Tick/Count))
system.cpu.l1d.overallAvgMissLatency::total 193194.973319                       # average overall miss latency ((Tick/Count))
system.cpu.l1d.blockedCycles::no_mshrs              0                       # number of cycles access was blocked (Cycle)
system.cpu.l1d.blockedCycles::no_targets            0                       # number of cycles access was blocked (Cycle)
system.cpu.l1d.blockedCauses::no_mshrs              0                       # number of times access was blocked (Count)
system.cpu.l1d.blockedCauses::no_targets            0                       # number of times access was blocked (Count)
system.cpu.l1d.avgBlocked::no_mshrs               nan                       # average number of cycles each access was blocked ((Cycle/Count))
system.cpu.l1d.avgBlocked::no_targets             nan                       # average number of cycles each access was blocked ((Cycle/Count))
system.cpu.l1d.writebacks::writebacks          432401                       # number of writebacks (Count)
system.cpu.l1d.writebacks::total               432401                       # number of writebacks (Count)
system.cpu.l1d.demandMshrHits::cpu.data         82952                       # number of demand (read+write) MSHR hits (Count)
system.cpu.l1d.demandMshrHits::total            82952                       # number of demand (read+write) MSHR hits (Count)
system.cpu.l1d.overallMshrHits::cpu.data        82952                       # number of overall MSHR hits (Count)
system.cpu.l1d.overallMshrHits::total           82952                       # number of overall MSHR hits (Count)
system.cpu.l1d.demandMshrMisses::cpu.data       864749                       # number of demand (read+write) MSHR misses (Count)
system.cpu.l1d.demandMshrMisses::total         864749                       # number of demand (read+write) MSHR misses (Count)
system.cpu.l1d.overallMshrMisses::cpu.data       864750                       # number of overall MSHR misses (Count)
system.cpu.l1d.overallMshrMisses::total        864750                       # number of overall MSHR misses (Count)
system.cpu.l1d.demandMshrMissLatency::cpu.data 153735369853                       # number of demand (read+write) MSHR miss ticks (Tick)
system.cpu.l1d.demandMshrMissLatency::total 153735369853                       # number of demand (read+write) MSHR miss ticks (Tick)
system.cpu.l1d.overallMshrMissLatency::cpu.data 153735596514                       # number of overall MSHR miss ticks (Tick)
system.cpu.l1d.overallMshrMissLatency::total 153735596514                       # number of overall MSHR miss ticks (Tick)
system.cpu.l1d.demandMshrMissRate::cpu.data     0.036801                       # mshr miss ratio for demand accesses (Ratio)
system.cpu.l1d.demandMshrMissRate::total     0.036801                       # mshr miss ratio for demand accesses (Ratio)
system.cpu.l1d.overallMshrMissRate::cpu.data     0.036801                       # mshr miss ratio for overall accesses (Ratio)
system.cpu.l1d.overallMshrMissRate::total     0.036801                       # mshr miss ratio for overall accesses (Ratio)
system.cpu.l1d.demandAvgMshrMissLatency::cpu.data 177780.338402                       # average overall mshr miss latency ((Tick/Count))
system.cpu.l1d.demandAvgMshrMissLatency::total 177780.338402                       # average overall mshr miss latency ((Tick/Count))
system.cpu.l1d.overallAvgMshrMissLatency::cpu.data 177780.394928                       # average overall mshr miss latency ((Tick/Count))
system.cpu.l1d.overallAvgMshrMissLatency::total 177780.394928                       # average overall mshr miss latency ((Tick/Count))
system.cpu.l1d.replacements                    864755                       # number of replacements (Count)
system.cpu.l1d.LockedRMWReadReq.hits::cpu.data          689                       # number of LockedRMWReadReq hits (Count)
system.cpu.l1d.LockedRMWReadReq.hits::total          689                       # number of LockedRMWReadReq hits (Count)
system.cpu.l1d.LockedRMWReadReq.misses::cpu.data           69                       # number of LockedRMWReadReq misses (Count)
system.cpu.l1d.LockedRMWReadReq.misses::total           69                       # number of LockedRMWReadReq misses (Count)
system.cpu.l1d.LockedRMWReadReq.missLatency::cpu.data     14306309                       # number of LockedRMWReadReq miss ticks (Tick)
system.cpu.l1d.LockedRMWReadReq.missLatency::total     14306309                       # number of LockedRMWReadReq miss ticks (Tick)
system.cpu.l1d.LockedRMWReadReq.accesses::cpu.data          758                       # number of LockedRMWReadReq accesses(hits+misses) (Count)
system.cpu.l1d.LockedRMWReadReq.accesses::total          758                       # number of LockedRMWReadReq accesses(hits+misses) (Count)
system.cpu.l1d.LockedRMWReadReq.missRate::cpu.data     0.091029                       # miss rate for LockedRMWReadReq accesses (Ratio)
system.cpu.l1d.LockedRMWReadReq.missRate::total     0.091029                       # miss rate for LockedRMWReadReq accesses (Ratio)
system.cpu.l1d.LockedRMWReadReq.avgMissLatency::cpu.data 207337.811594                       # average LockedRMWReadReq miss latency ((Tick/Count))
system.cpu.l1d.LockedRMWReadReq.avgMissLatency::total 207337.811594                       # average LockedRMWReadReq miss latency ((Tick/Count))
system.cpu.l1d.LockedRMWReadReq.mshrMisses::cpu.data           69                       # number of LockedRMWReadReq MSHR misses (Count)
system.cpu.l1d.LockedRMWReadReq.mshrMisses::total           69                       # number of LockedRMWReadReq MSHR misses (Count)
system.cpu.l1d.LockedRMWReadReq.mshrMissLatency::cpu.data     58505204                       # number of LockedRMWReadReq MSHR miss ticks (Tick)
system.cpu.l1d.LockedRMWReadReq.mshrMissLatency::total     58505204                       # number of LockedRMWReadReq MSHR miss ticks (Tick)
system.cpu.l1d.LockedRMWReadReq.mshrMissRate::cpu.data     0.091029                       # mshr miss rate for LockedRMWReadReq accesses (Ratio)
system.cpu.l1d.LockedRMWReadReq.mshrMissRate::total     0.091029                       # mshr miss rate for LockedRMWReadReq accesses (Ratio)
system.cpu.l1d.LockedRMWReadReq.avgMshrMissLatency::cpu.data 847901.507246                       # average LockedRMWReadReq mshr miss latency ((Tick/Count))
system.cpu.l1d.LockedRMWReadReq.avgMshrMissLatency::total 847901.507246                       # average LockedRMWReadReq mshr miss latency ((Tick/Count))
system.cpu.l1d.LockedRMWWriteReq.hits::cpu.data          758                       # number of LockedRMWWriteReq hits (Count)
system.cpu.l1d.LockedRMWWriteReq.hits::total          758                       # number of LockedRMWWriteReq hits (Count)
system.cpu.l1d.LockedRMWWriteReq.accesses::cpu.data          758                       # number of LockedRMWWriteReq accesses(hits+misses) (Count)
system.cpu.l1d.LockedRMWWriteReq.accesses::total          758                       # number of LockedRMWWriteReq accesses(hits+misses) (Count)
system.cpu.l1d.ReadReq.hits::cpu.data        14947671                       # number of ReadReq hits (Count)
system.cpu.l1d.ReadReq.hits::total           14947671                       # number of ReadReq hits (Count)
system.cpu.l1d.ReadReq.misses::cpu.data        645558                       # number of ReadReq misses (Count)
system.cpu.l1d.ReadReq.misses::total           645558                       # number of ReadReq misses (Count)
system.cpu.l1d.ReadReq.missLatency::cpu.data 128922190198                       # number of ReadReq miss ticks (Tick)
system.cpu.l1d.ReadReq.missLatency::total 128922190198                       # number of ReadReq miss ticks (Tick)
system.cpu.l1d.ReadReq.accesses::cpu.data     15593229                       # number of ReadReq accesses(hits+misses) (Count)
system.cpu.l1d.ReadReq.accesses::total       15593229                       # number of ReadReq accesses(hits+misses) (Count)
system.cpu.l1d.ReadReq.missRate::cpu.data     0.041400                       # miss rate for ReadReq accesses (Ratio)
system.cpu.l1d.ReadReq.missRate::total       0.041400                       # miss rate for ReadReq accesses (Ratio)
system.cpu.l1d.ReadReq.avgMissLatency::cpu.data 199706.595221                       # average ReadReq miss latency ((Tick/Count))
system.cpu.l1d.ReadReq.avgMissLatency::total 199706.595221                       # average ReadReq miss latency ((Tick/Count))
system.cpu.l1d.ReadReq.mshrHits::cpu.data        52633                       # number of ReadReq MSHR hits (Count)
system.cpu.l1d.ReadReq.mshrHits::total          52633                       # number of ReadReq MSHR hits (Count)
system.cpu.l1d.ReadReq.mshrMisses::cpu.data       592925                       # number of ReadReq MSHR misses (Count)
system.cpu.l1d.ReadReq.mshrMisses::total       592925                       # number of ReadReq MSHR misses (Count)
system.cpu.l1d.ReadReq.mshrMissLatency::cpu.data 108477221335                       # number of ReadReq MSHR miss ticks (Tick)
system.cpu.l1d.ReadReq.mshrMissLatency::total 108477221335                       # number of ReadReq MSHR miss ticks (Tick)
system.cpu.l1d.ReadReq.mshrMissRate::cpu.data     0.038025                       # mshr miss rate for ReadReq accesses (Ratio)
system.cpu.l1d.ReadReq.mshrMissRate::total     0.038025                       # mshr miss rate for ReadReq accesses (Ratio)
system.cpu.l1d.ReadReq.avgMshrMissLatency::cpu.data 182952.685981                       # average ReadReq mshr miss latency ((Tick/Count))
system.cpu.l1d.ReadReq.avgMshrMissLatency::total 182952.685981                       # average ReadReq mshr miss latency ((Tick/Count))
system.cpu.l1d.SoftPFReq.hits::cpu.data             1                       # number of SoftPFReq hits (Count)
system.cpu.l1d.SoftPFReq.hits::total                1                       # number of SoftPFReq hits (Count)
system.cpu.l1d.SoftPFReq.misses::cpu.data            1                       # number of SoftPFReq misses (Count)
system.cpu.l1d.SoftPFReq.misses::total              1                       # number of SoftPFReq misses (Count)
system.cpu.l1d.SoftPFReq.accesses::cpu.data            2                       # number of SoftPFReq accesses(hits+misses) (Count)
system.cpu.l1d.SoftPFReq.accesses::total            2                       # number of SoftPFReq accesses(hits+misses) (Count)
system.cpu.l1d.SoftPFReq.missRate::cpu.data     0.500000                       # miss rate for SoftPFReq accesses (Ratio)
system.cpu.l1d.SoftPFReq.missRate::total     0.500000                       # miss rate for SoftPFReq accesses (Ratio)
system.cpu.l1d.SoftPFReq.mshrMisses::cpu.data            1                       # number of SoftPFReq MSHR misses (Count)
system.cpu.l1d.SoftPFReq.mshrMisses::total            1                       # number of SoftPFReq MSHR misses (Count)
system.cpu.l1d.SoftPFReq.mshrMissLatency::cpu.data       226661                       # number of SoftPFReq MSHR miss ticks (Tick)
system.cpu.l1d.SoftPFReq.mshrMissLatency::total       226661                       # number of SoftPFReq MSHR miss ticks (Tick)
system.cpu.l1d.SoftPFReq.mshrMissRate::cpu.data     0.500000                       # mshr miss rate for SoftPFReq accesses (Ratio)
system.cpu.l1d.SoftPFReq.mshrMissRate::total     0.500000                       # mshr miss rate for SoftPFReq accesses (Ratio)
system.cpu.l1d.SoftPFReq.avgMshrMissLatency::cpu.data       226661                       # average SoftPFReq mshr miss latency ((Tick/Count))
system.cpu.l1d.SoftPFReq.avgMshrMissLatency::total       226661                       # average SoftPFReq mshr miss latency ((Tick/Count))
system.cpu.l1d.WriteReq.hits::cpu.data        7602358                       # number of WriteReq hits (Count)
system.cpu.l1d.WriteReq.hits::total           7602358                       # number of WriteReq hits (Count)
system.cpu.l1d.WriteReq.misses::cpu.data       302143                       # number of WriteReq misses (Count)
system.cpu.l1d.WriteReq.misses::total          302143                       # number of WriteReq misses (Count)
system.cpu.l1d.WriteReq.missLatency::cpu.data  54169072406                       # number of WriteReq miss ticks (Tick)
system.cpu.l1d.WriteReq.missLatency::total  54169072406                       # number of WriteReq miss ticks (Tick)
system.cpu.l1d.WriteReq.accesses::cpu.data      7904501                       # number of WriteReq accesses(hits+misses) (Count)
system.cpu.l1d.WriteReq.accesses::total       7904501                       # number of WriteReq accesses(hits+misses) (Count)
system.cpu.l1d.WriteReq.missRate::cpu.data     0.038224                       # miss rate for WriteReq accesses (Ratio)
system.cpu.l1d.WriteReq.missRate::total      0.038224                       # miss rate for WriteReq accesses (Ratio)
system.cpu.l1d.WriteReq.avgMissLatency::cpu.data 179282.897191                       # average WriteReq miss latency ((Tick/Count))
system.cpu.l1d.WriteReq.avgMissLatency::total 179282.897191                       # average WriteReq miss latency ((Tick/Count))
system.cpu.l1d.WriteReq.mshrHits::cpu.data        30319                       # number of WriteReq MSHR hits (Count)
system.cpu.l1d.WriteReq.mshrHits::total         30319                       # number of WriteReq MSHR hits (Count)
system.cpu.l1d.WriteReq.mshrMisses::cpu.data       271824                       # number of WriteReq MSHR misses (Count)
system.cpu.l1d.WriteReq.mshrMisses::total       271824                       # number of WriteReq MSHR misses (Count)
system.cpu.l1d.WriteReq.mshrMissLatency::cpu.data  45258148518                       # number of WriteReq MSHR miss ticks (Tick)
system.cpu.l1d.WriteReq.mshrMissLatency::total  45258148518                       # number of WriteReq MSHR miss ticks (Tick)
system.cpu.l1d.WriteReq.mshrMissRate::cpu.data     0.034389                       # mshr miss rate for WriteReq accesses (Ratio)
system.cpu.l1d.WriteReq.mshrMissRate::total     0.034389                       # mshr miss rate for WriteReq accesses (Ratio)
system.cpu.l1d.WriteReq.avgMshrMissLatency::cpu.data 166497.985895                       # average WriteReq mshr miss latency ((Tick/Count))
system.cpu.l1d.WriteReq.avgMshrMissLatency::total 166497.985895                       # average WriteReq mshr miss latency ((Tick/Count))
system.cpu.l1d.power_state.pwrStateResidencyTicks::UNDEFINED 2102706577688                       # Cumulative time (in ticks) in various power states (Tick)
system.cpu.l1d.tags.tagsInUse               63.999213                       # Average ticks per tags in use ((Tick/Count))
system.cpu.l1d.tags.totalRefs                17586280                       # Total number of references to valid blocks. (Count)
system.cpu.l1d.tags.sampledRefs                864755                       # Sample count of references to valid blocks. (Count)
system.cpu.l1d.tags.avgRefs                 20.336720                       # Average number of references to valid blocks. ((Count/Count))
system.cpu.l1d.tags.warmupTick                 546653                       # The tick when the warmup percentage was hit. (Tick)
system.cpu.l1d.tags.occupancies::cpu.data    63.999213                       # Average occupied blocks per tick, per requestor ((Count/Tick))
system.cpu.l1d.tags.avgOccs::cpu.data        0.999988                       # Average percentage of cache occupancy ((Ratio/Tick))
system.cpu.l1d.tags.avgOccs::total           0.999988                       # Average percentage of cache occupancy ((Ratio/Tick))
system.cpu.l1d.tags.occupanciesTaskId::1024           64                       # Occupied blocks per task id (Count)
system.cpu.l1d.tags.ageTaskId_1024::0               3                       # Occupied blocks per task id, per block age (Count)
system.cpu.l1d.tags.ageTaskId_1024::1               9                       # Occupied blocks per task id, per block age (Count)
system.cpu.l1d.tags.ageTaskId_1024::4              52                       # Occupied blocks per task id, per block age (Count)
system.cpu.l1d.tags.ratioOccsTaskId::1024            1                       # Ratio of occupied blocks and all blocks, per task id (Ratio)
system.cpu.l1d.tags.tagAccesses              24364067                       # Number of tag accesses (Count)
system.cpu.l1d.tags.dataAccesses             24364067                       # Number of data accesses (Count)
system.cpu.l1d.tags.power_state.pwrStateResidencyTicks::UNDEFINED 2102706577688                       # Cumulative time (in ticks) in various power states (Tick)
system.cpu.l1i.demandHits::cpu.inst          21758449                       # number of demand (read+write) hits (Count)
system.cpu.l1i.demandHits::total             21758449                       # number of demand (read+write) hits (Count)
system.cpu.l1i.overallHits::cpu.inst         21758449                       # number of overall hits (Count)
system.cpu.l1i.overallHits::total            21758449                       # number of overall hits (Count)
system.cpu.l1i.demandMisses::cpu.inst         1849325                       # number of demand (read+write) misses (Count)
system.cpu.l1i.demandMisses::total            1849325                       # number of demand (read+write) misses (Count)
system.cpu.l1i.overallMisses::cpu.inst        1849325                       # number of overall misses (Count)
system.cpu.l1i.overallMisses::total           1849325                       # number of overall misses (Count)
system.cpu.l1i.demandMissLatency::cpu.inst 391020797569                       # number of demand (read+write) miss ticks (Tick)
system.cpu.l1i.demandMissLatency::total  391020797569                       # number of demand (read+write) miss ticks (Tick)
system.cpu.l1i.overallMissLatency::cpu.inst 391020797569                       # number of overall miss ticks (Tick)
system.cpu.l1i.overallMissLatency::total 391020797569                       # number of overall miss ticks (Tick)
system.cpu.l1i.demandAccesses::cpu.inst      23607774                       # number of demand (read+write) accesses (Count)
system.cpu.l1i.demandAccesses::total         23607774                       # number of demand (read+write) accesses (Count)
system.cpu.l1i.overallAccesses::cpu.inst     23607774                       # number of overall (read+write) accesses (Count)
system.cpu.l1i.overallAccesses::total        23607774                       # number of overall (read+write) accesses (Count)
system.cpu.l1i.demandMissRate::cpu.inst      0.078335                       # miss rate for demand accesses (Ratio)
system.cpu.l1i.demandMissRate::total         0.078335                       # miss rate for demand accesses (Ratio)
system.cpu.l1i.overallMissRate::cpu.inst     0.078335                       # miss rate for overall accesses (Ratio)
system.cpu.l1i.overallMissRate::total        0.078335                       # miss rate for overall accesses (Ratio)
system.cpu.l1i.demandAvgMissLatency::cpu.inst 211439.740213                       # average overall miss latency in ticks ((Tick/Count))
system.cpu.l1i.demandAvgMissLatency::total 211439.740213                       # average overall miss latency in ticks ((Tick/Count))
system.cpu.l1i.overallAvgMissLatency::cpu.inst 211439.740213                       # average overall miss latency ((Tick/Count))
system.cpu.l1i.overallAvgMissLatency::total 211439.740213                       # average overall miss latency ((Tick/Count))
system.cpu.l1i.blockedCycles::no_mshrs              0                       # number of cycles access was blocked (Cycle)
system.cpu.l1i.blockedCycles::no_targets            0                       # number of cycles access was blocked (Cycle)
system.cpu.l1i.blockedCauses::no_mshrs              0                       # number of times access was blocked (Count)
system.cpu.l1i.blockedCauses::no_targets            0                       # number of times access was blocked (Count)
system.cpu.l1i.avgBlocked::no_mshrs               nan                       # average number of cycles each access was blocked ((Cycle/Count))
system.cpu.l1i.avgBlocked::no_targets             nan                       # average number of cycles each access was blocked ((Cycle/Count))
system.cpu.l1i.demandMshrMisses::cpu.inst      1849325                       # number of demand (read+write) MSHR misses (Count)
system.cpu.l1i.demandMshrMisses::total        1849325                       # number of demand (read+write) MSHR misses (Count)
system.cpu.l1i.overallMshrMisses::cpu.inst      1849325                       # number of overall MSHR misses (Count)
system.cpu.l1i.overallMshrMisses::total       1849325                       # number of overall MSHR misses (Count)
system.cpu.l1i.demandMshrMissLatency::cpu.inst 366363760677                       # number of demand (read+write) MSHR miss ticks (Tick)
system.cpu.l1i.demandMshrMissLatency::total 366363760677                       # number of demand (read+write) MSHR miss ticks (Tick)
system.cpu.l1i.overallMshrMissLatency::cpu.inst 366363760677                       # number of overall MSHR miss ticks (Tick)
system.cpu.l1i.overallMshrMissLatency::total 366363760677                       # number of overall MSHR miss ticks (Tick)
system.cpu.l1i.demandMshrMissRate::cpu.inst     0.078335                       # mshr miss ratio for demand accesses (Ratio)
system.cpu.l1i.demandMshrMissRate::total     0.078335                       # mshr miss ratio for demand accesses (Ratio)
system.cpu.l1i.overallMshrMissRate::cpu.inst     0.078335                       # mshr miss ratio for overall accesses (Ratio)
system.cpu.l1i.overallMshrMissRate::total     0.078335                       # mshr miss ratio for overall accesses (Ratio)
system.cpu.l1i.demandAvgMshrMissLatency::cpu.inst 198106.747422                       # average overall mshr miss latency ((Tick/Count))
system.cpu.l1i.demandAvgMshrMissLatency::total 198106.747422                       # average overall mshr miss latency ((Tick/Count))
system.cpu.l1i.overallAvgMshrMissLatency::cpu.inst 198106.747422                       # average overall mshr miss latency ((Tick/Count))
system.cpu.l1i.overallAvgMshrMissLatency::total 198106.747422                       # average overall mshr miss latency ((Tick/Count))
system.cpu.l1i.replacements                   1849260                       # number of replacements (Count)
system.cpu.l1i.ReadReq.hits::cpu.inst        21758449                       # number of ReadReq hits (Count)
system.cpu.l1i.ReadReq.hits::total           21758449                       # number of ReadReq hits (Count)
system.cpu.l1i.ReadReq.misses::cpu.inst       1849325                       # number of ReadReq misses (Count)
system.cpu.l1i.ReadReq.misses::total          1849325                       # number of ReadReq misses (Count)
system.cpu.l1i.ReadReq.missLatency::cpu.inst 391020797569                       # number of ReadReq miss ticks (Tick)
system.cpu.l1i.ReadReq.missLatency::total 391020797569                       # number of ReadReq miss ticks (Tick)
system.cpu.l1i.ReadReq.accesses::cpu.inst     23607774                       # number of ReadReq accesses(hits+misses) (Count)
system.cpu.l1i.ReadReq.accesses::total       23607774                       # number of ReadReq accesses(hits+misses) (Count)
system.cpu.l1i.ReadReq.missRate::cpu.inst     0.078335                       # miss rate for ReadReq accesses (Ratio)
system.cpu.l1i.ReadReq.missRate::total       0.078335                       # miss rate for ReadReq accesses (Ratio)
system.cpu.l1i.ReadReq.avgMissLatency::cpu.inst 211439.740213                       # average ReadReq miss latency ((Tick/Count))
system.cpu.l1i.ReadReq.avgMissLatency::total 211439.740213                       # average ReadReq miss latency ((Tick/Count))
system.cpu.l1i.ReadReq.mshrMisses::cpu.inst      1849325                       # number of ReadReq MSHR misses (Count)
system.cpu.l1i.ReadReq.mshrMisses::total      1849325                       # number of ReadReq MSHR misses (Count)
system.cpu.l1i.ReadReq.mshrMissLatency::cpu.inst 366363760677                       # number of ReadReq MSHR miss ticks (Tick)
system.cpu.l1i.ReadReq.mshrMissLatency::total 366363760677                       # number of ReadReq MSHR miss ticks (Tick)
system.cpu.l1i.ReadReq.mshrMissRate::cpu.inst     0.078335                       # mshr miss rate for ReadReq accesses (Ratio)
system.cpu.l1i.ReadReq.mshrMissRate::total     0.078335                       # mshr miss rate for ReadReq accesses (Ratio)
system.cpu.l1i.ReadReq.avgMshrMissLatency::cpu.inst 198106.747422                       # average ReadReq mshr miss latency ((Tick/Count))
system.cpu.l1i.ReadReq.avgMshrMissLatency::total 198106.747422                       # average ReadReq mshr miss latency ((Tick/Count))
system.cpu.l1i.power_state.pwrStateResidencyTicks::UNDEFINED 2102706577688                       # Cumulative time (in ticks) in various power states (Tick)
system.cpu.l1i.tags.tagsInUse               63.997353                       # Average ticks per tags in use ((Tick/Count))
system.cpu.l1i.tags.totalRefs                15718047                       # Total number of references to valid blocks. (Count)
system.cpu.l1i.tags.sampledRefs               1849260                       # Sample count of references to valid blocks. (Count)
system.cpu.l1i.tags.avgRefs                  8.499641                       # Average number of references to valid blocks. ((Count/Count))
system.cpu.l1i.tags.warmupTick                 213328                       # The tick when the warmup percentage was hit. (Tick)
system.cpu.l1i.tags.occupancies::cpu.inst    63.997353                       # Average occupied blocks per tick, per requestor ((Count/Tick))
system.cpu.l1i.tags.avgOccs::cpu.inst        0.999959                       # Average percentage of cache occupancy ((Ratio/Tick))
system.cpu.l1i.tags.avgOccs::total           0.999959                       # Average percentage of cache occupancy ((Ratio/Tick))
system.cpu.l1i.tags.occupanciesTaskId::1024           64                       # Occupied blocks per task id (Count)
system.cpu.l1i.tags.ageTaskId_1024::0              11                       # Occupied blocks per task id, per block age (Count)
system.cpu.l1i.tags.ageTaskId_1024::1              23                       # Occupied blocks per task id, per block age (Count)
system.cpu.l1i.tags.ageTaskId_1024::2               1                       # Occupied blocks per task id, per block age (Count)
system.cpu.l1i.tags.ageTaskId_1024::4              29                       # Occupied blocks per task id, per block age (Count)
system.cpu.l1i.tags.ratioOccsTaskId::1024            1                       # Ratio of occupied blocks and all blocks, per task id (Ratio)
system.cpu.l1i.tags.tagAccesses              25457098                       # Number of tag accesses (Count)
system.cpu.l1i.tags.dataAccesses             25457098                       # Number of data accesses (Count)
system.cpu.l1i.tags.power_state.pwrStateResidencyTicks::UNDEFINED 2102706577688                       # Cumulative time (in ticks) in various power states (Tick)
system.cpu.mmu.dtb.rdAccesses                15987890                       # TLB accesses on read requests (Count)
system.cpu.mmu.dtb.wrAccesses                11650293                       # TLB accesses on write requests (Count)
system.cpu.mmu.dtb.rdMisses                     20487                       # TLB misses on read requests (Count)
system.cpu.mmu.dtb.wrMisses                       783                       # TLB misses on write requests (Count)
system.cpu.mmu.dtb.walker.power_state.pwrStateResidencyTicks::UNDEFINED 2102706577688                       # Cumulative time (in ticks) in various power states (Tick)
system.cpu.mmu.itb.rdAccesses                       0                       # TLB accesses on read requests (Count)
system.cpu.mmu.itb.wrAccesses                23607920                       # TLB accesses on write requests (Count)
system.cpu.mmu.itb.rdMisses                         0                       # TLB misses on read requests (Count)
system.cpu.mmu.itb.wrMisses                       542                       # TLB misses on write requests (Count)
system.cpu.mmu.itb.walker.power_state.pwrStateResidencyTicks::UNDEFINED 2102706577688                       # Cumulative time (in ticks) in various power states (Tick)
system.cpu.power_state.pwrStateResidencyTicks::ON 2102706577688                       # Cumulative time (in ticks) in various power states (Tick)
system.cpu.thread_0.numInsts                 56810905                       # Number of Instructions committed (Count)
system.cpu.thread_0.numOps                   95134141                       # Number of Ops committed (Count)
system.cpu.thread_0.numMemRefs                      0                       # Number of Memory References (Count)
system.cpu.workload.numSyscalls                 28180                       # Number of system calls (Count)
system.mem_ctrl.avgPriority_writebacks::samples     15947.00                       # Average QoS priority value for accepted requests (Count)
system.mem_ctrl.avgPriority_cpu.inst::samples   1849325.00                       # Average QoS priority value for accepted requests (Count)
system.mem_ctrl.avgPriority_cpu.data::samples    297578.00                       # Average QoS priority value for accepted requests (Count)
system.mem_ctrl.priorityMinLatency       0.000000018750                       # per QoS priority minimum request to response latency (Second)
system.mem_ctrl.priorityMaxLatency       0.010417304148                       # per QoS priority maximum request to response latency (Second)
system.mem_ctrl.numReadWriteTurnArounds           886                       # Number of turnarounds from READ to WRITE (Count)
system.mem_ctrl.numWriteReadTurnArounds           886                       # Number of turnarounds from WRITE to READ (Count)
system.mem_ctrl.numStayReadState              5266204                       # Number of times bus staying in READ state (Count)
system.mem_ctrl.numStayWriteState               15060                       # Number of times bus staying in WRITE state (Count)
system.mem_ctrl.readReqs                      2714144                       # Number of read requests accepted (Count)
system.mem_ctrl.writeReqs                      432401                       # Number of write requests accepted (Count)
system.mem_ctrl.readBursts                    2714144                       # Number of controller read bursts, including those serviced by the write queue (Count)
system.mem_ctrl.writeBursts                    432401                       # Number of controller write bursts, including those merged in the write queue (Count)
system.mem_ctrl.servicedByWrQ                  567241                       # Number of controller read bursts serviced by the write queue (Count)
system.mem_ctrl.mergedWrBursts                 416454                       # Number of controller write bursts merged with an existing one (Count)
system.mem_ctrl.neitherReadNorWriteReqs             0                       # Number of requests that are neither read nor write (Count)
system.mem_ctrl.avgRdQLen                        1.02                       # Average read queue length when enqueuing ((Count/Tick))
system.mem_ctrl.avgWrQLen                       30.73                       # Average write queue length when enqueuing ((Count/Tick))
system.mem_ctrl.numRdRetry                          0                       # Number of times read queue was full causing retry (Count)
system.mem_ctrl.numWrRetry                          0                       # Number of times write queue was full causing retry (Count)
system.mem_ctrl.readPktSize::0                      0                       # Read request sizes (log2) (Count)
system.mem_ctrl.readPktSize::1                      0                       # Read request sizes (log2) (Count)
system.mem_ctrl.readPktSize::2                      0                       # Read request sizes (log2) (Count)
system.mem_ctrl.readPktSize::3                      0                       # Read request sizes (log2) (Count)
system.mem_ctrl.readPktSize::4                      0                       # Read request sizes (log2) (Count)
system.mem_ctrl.readPktSize::5                      0                       # Read request sizes (log2) (Count)
system.mem_ctrl.readPktSize::6                2714144                       # Read request sizes (log2) (Count)
system.mem_ctrl.writePktSize::0                     0                       # Write request sizes (log2) (Count)
system.mem_ctrl.writePktSize::1                     0                       # Write request sizes (log2) (Count)
system.mem_ctrl.writePktSize::2                     0                       # Write request sizes (log2) (Count)
system.mem_ctrl.writePktSize::3                     0                       # Write request sizes (log2) (Count)
system.mem_ctrl.writePktSize::4                     0                       # Write request sizes (log2) (Count)
system.mem_ctrl.writePktSize::5                     0                       # Write request sizes (log2) (Count)
system.mem_ctrl.writePktSize::6                432401                       # Write request sizes (log2) (Count)
system.mem_ctrl.rdQLenPdf::0                  2071290                       # What read queue length does an incoming req see (Count)
system.mem_ctrl.rdQLenPdf::1                    75602                       # What read queue length does an incoming req see (Count)
system.mem_ctrl.rdQLenPdf::2                       11                       # What read queue length does an incoming req see (Count)
system.mem_ctrl.rdQLenPdf::3                        0                       # What read queue length does an incoming req see (Count)
system.mem_ctrl.rdQLenPdf::4                        0                       # What read queue length does an incoming req see (Count)
system.mem_ctrl.rdQLenPdf::5                        0                       # What read queue length does an incoming req see (Count)
system.mem_ctrl.rdQLenPdf::6                        0                       # What read queue length does an incoming req see (Count)
system.mem_ctrl.rdQLenPdf::7                        0                       # What read queue length does an incoming req see (Count)
system.mem_ctrl.rdQLenPdf::8                        0                       # What read queue length does an incoming req see (Count)
system.mem_ctrl.rdQLenPdf::9                        0                       # What read queue length does an incoming req see (Count)
system.mem_ctrl.rdQLenPdf::10                       0                       # What read queue length does an incoming req see (Count)
system.mem_ctrl.rdQLenPdf::11                       0                       # What read queue length does an incoming req see (Count)
system.mem_ctrl.rdQLenPdf::12                       0                       # What read queue length does an incoming req see (Count)
system.mem_ctrl.rdQLenPdf::13                       0                       # What read queue length does an incoming req see (Count)
system.mem_ctrl.rdQLenPdf::14                       0                       # What read queue length does an incoming req see (Count)
system.mem_ctrl.rdQLenPdf::15                       0                       # What read queue length does an incoming req see (Count)
system.mem_ctrl.rdQLenPdf::16                       0                       # What read queue length does an incoming req see (Count)
system.mem_ctrl.rdQLenPdf::17                       0                       # What read queue length does an incoming req see (Count)
system.mem_ctrl.rdQLenPdf::18                       0                       # What read queue length does an incoming req see (Count)
system.mem_ctrl.rdQLenPdf::19                       0                       # What read queue length does an incoming req see (Count)
system.mem_ctrl.rdQLenPdf::20                       0                       # What read queue length does an incoming req see (Count)
system.mem_ctrl.rdQLenPdf::21                       0                       # What read queue length does an incoming req see (Count)
system.mem_ctrl.rdQLenPdf::22                       0                       # What read queue length does an incoming req see (Count)
system.mem_ctrl.rdQLenPdf::23                       0                       # What read queue length does an incoming req see (Count)
system.mem_ctrl.rdQLenPdf::24                       0                       # What read queue length does an incoming req see (Count)
system.mem_ctrl.rdQLenPdf::25                       0                       # What read queue length does an incoming req see (Count)
system.mem_ctrl.rdQLenPdf::26                       0                       # What read queue length does an incoming req see (Count)
system.mem_ctrl.rdQLenPdf::27                       0                       # What read queue length does an incoming req see (Count)
system.mem_ctrl.rdQLenPdf::28                       0                       # What read queue length does an incoming req see (Count)
system.mem_ctrl.rdQLenPdf::29                       0                       # What read queue length does an incoming req see (Count)
system.mem_ctrl.rdQLenPdf::30                       0                       # What read queue length does an incoming req see (Count)
system.mem_ctrl.rdQLenPdf::31                       0                       # What read queue length does an incoming req see (Count)
system.mem_ctrl.wrQLenPdf::0                        1                       # What write queue length does an incoming req see (Count)
system.mem_ctrl.wrQLenPdf::1                        1                       # What write queue length does an incoming req see (Count)
system.mem_ctrl.wrQLenPdf::2                        1                       # What write queue length does an incoming req see (Count)
system.mem_ctrl.wrQLenPdf::3                        1                       # What write queue length does an incoming req see (Count)
system.mem_ctrl.wrQLenPdf::4                        1                       # What write queue length does an incoming req see (Count)
system.mem_ctrl.wrQLenPdf::5                        1                       # What write queue length does an incoming req see (Count)
system.mem_ctrl.wrQLenPdf::6                        1                       # What write queue length does an incoming req see (Count)
system.mem_ctrl.wrQLenPdf::7                        1                       # What write queue length does an incoming req see (Count)
system.mem_ctrl.wrQLenPdf::8                        1                       # What write queue length does an incoming req see (Count)
system.mem_ctrl.wrQLenPdf::9                        1                       # What write queue length does an incoming req see (Count)
system.mem_ctrl.wrQLenPdf::10                       1                       # What write queue length does an incoming req see (Count)
system.mem_ctrl.wrQLenPdf::11                       1                       # What write queue length does an incoming req see (Count)
system.mem_ctrl.wrQLenPdf::12                       1                       # What write queue length does an incoming req see (Count)
system.mem_ctrl.wrQLenPdf::13                       1                       # What write queue length does an incoming req see (Count)
system.mem_ctrl.wrQLenPdf::14                       1                       # What write queue length does an incoming req see (Count)
system.mem_ctrl.wrQLenPdf::15                     863                       # What write queue length does an incoming req see (Count)
system.mem_ctrl.wrQLenPdf::16                     879                       # What write queue length does an incoming req see (Count)
[...]
system.mem_ctrl.dram.bwInstRead::total      118151172                       # Instruction read bandwidth from this memory ((Byte/Second))
system.mem_ctrl.dram.bwWrite::writebacks     18468168                       # Write bandwidth from this memory ((Byte/Second))
system.mem_ctrl.dram.bwWrite::total          18468168                       # Write bandwidth from this memory ((Byte/Second))
system.mem_ctrl.dram.bwTotal::writebacks     18468168                       # Total bandwidth to/from this memory ((Byte/Second))
system.mem_ctrl.dram.bwTotal::cpu.inst      118151172                       # Total bandwidth to/from this memory ((Byte/Second))
system.mem_ctrl.dram.bwTotal::cpu.data       63373131                       # Total bandwidth to/from this memory ((Byte/Second))
system.mem_ctrl.dram.bwTotal::total         199992471                       # Total bandwidth to/from this memory ((Byte/Second))
system.mem_ctrl.dram.readBursts                  6785                       # Number of DRAM read bursts (Count)
system.mem_ctrl.dram.writeBursts                  533                       # Number of DRAM write bursts (Count)
system.mem_ctrl.dram.perBankRdBursts::0           316                       # Per bank write bursts (Count)
system.mem_ctrl.dram.perBankRdBursts::1           401                       # Per bank write bursts (Count)
system.mem_ctrl.dram.perBankRdBursts::2           429                       # Per bank write bursts (Count)
system.mem_ctrl.dram.perBankRdBursts::3           254                       # Per bank write bursts (Count)
system.mem_ctrl.dram.perBankRdBursts::4           399                       # Per bank write bursts (Count)
system.mem_ctrl.dram.perBankRdBursts::5           687                       # Per bank write bursts (Count)
system.mem_ctrl.dram.perBankRdBursts::6           891                       # Per bank write bursts (Count)
system.mem_ctrl.dram.perBankRdBursts::7           127                       # Per bank write bursts (Count)
system.mem_ctrl.dram.perBankRdBursts::8           285                       # Per bank write bursts (Count)
system.mem_ctrl.dram.perBankRdBursts::9           938                       # Per bank write bursts (Count)
system.mem_ctrl.dram.perBankRdBursts::10          243                       # Per bank write bursts (Count)
system.mem_ctrl.dram.perBankRdBursts::11          412                       # Per bank write bursts (Count)
system.mem_ctrl.dram.perBankRdBursts::12          196                       # Per bank write bursts (Count)
system.mem_ctrl.dram.perBankRdBursts::13          633                       # Per bank write bursts (Count)
system.mem_ctrl.dram.perBankRdBursts::14          421                       # Per bank write bursts (Count)
system.mem_ctrl.dram.perBankRdBursts::15          153                       # Per bank write bursts (Count)
system.mem_ctrl.dram.perBankWrBursts::0            17                       # Per bank write bursts (Count)
system.mem_ctrl.dram.perBankWrBursts::1            18                       # Per bank write bursts (Count)
system.mem_ctrl.dram.perBankWrBursts::2            18                       # Per bank write bursts (Count)
system.mem_ctrl.dram.perBankWrBursts::3            12                       # Per bank write bursts (Count)
system.mem_ctrl.dram.perBankWrBursts::4            13                       # Per bank write bursts (Count)
system.mem_ctrl.dram.perBankWrBursts::5           170                       # Per bank write bursts (Count)
system.mem_ctrl.dram.perBankWrBursts::6            16                       # Per bank write bursts (Count)
system.mem_ctrl.dram.perBankWrBursts::7           120                       # Per bank write bursts (Count)
system.mem_ctrl.dram.perBankWrBursts::8            22                       # Per bank write bursts (Count)
system.mem_ctrl.dram.perBankWrBursts::9            20                       # Per bank write bursts (Count)
system.mem_ctrl.dram.perBankWrBursts::10           28                       # Per bank write bursts (Count)
system.mem_ctrl.dram.perBankWrBursts::11           34                       # Per bank write bursts (Count)
system.mem_ctrl.dram.perBankWrBursts::12           27                       # Per bank write bursts (Count)
system.mem_ctrl.dram.perBankWrBursts::13           14                       # Per bank write bursts (Count)
system.mem_ctrl.dram.perBankWrBursts::14            4                       # Per bank write bursts (Count)
system.mem_ctrl.dram.perBankWrBursts::15            0                       # Per bank write bursts (Count)
system.mem_ctrl.dram.totQLat                 70879192                       # Total ticks spent queuing (Tick)
system.mem_ctrl.dram.totBusLat               33925000                       # Total ticks spent in databus transfers (Tick)
system.mem_ctrl.dram.totMemAccLat           198097942                       # Total ticks spent from burst creation until serviced by the DRAM (Tick)
system.mem_ctrl.dram.avgQLat                 10446.45                       # Average queueing delay per DRAM burst ((Tick/Count))
system.mem_ctrl.dram.avgBusLat                5000.00                       # Average bus latency per DRAM burst ((Tick/Count))
system.mem_ctrl.dram.avgMemAccLat            29196.45                       # Average memory access latency per DRAM burst ((Tick/Count))
system.mem_ctrl.dram.readRowHits                 4260                       # Number of row buffer hits during reads (Count)
system.mem_ctrl.dram.writeRowHits                 401                       # Number of row buffer hits during writes (Count)
system.mem_ctrl.dram.readRowHitRate             62.79                       # Row buffer hit rate for reads (Ratio)
system.mem_ctrl.dram.writeRowHitRate            75.23                       # Row buffer hit rate for writes (Ratio)
system.mem_ctrl.dram.bytesPerActivate::samples         2656                       # Bytes accessed per row activation (Byte)
system.mem_ctrl.dram.bytesPerActivate::mean   176.265060                       # Bytes accessed per row activation (Byte)
system.mem_ctrl.dram.bytesPerActivate::gmean   127.969509                       # Bytes accessed per row activation (Byte)
system.mem_ctrl.dram.bytesPerActivate::stdev   164.744502                       # Bytes accessed per row activation (Byte)
system.mem_ctrl.dram.bytesPerActivate::0-127         1209     45.52%     45.52% # Bytes accessed per row activation (Byte)
system.mem_ctrl.dram.bytesPerActivate::128-255          787     29.63%     75.15% # Bytes accessed per row activation (Byte)
system.mem_ctrl.dram.bytesPerActivate::256-383          312     11.75%     86.90% # Bytes accessed per row activation (Byte)
system.mem_ctrl.dram.bytesPerActivate::384-511          152      5.72%     92.62% # Bytes accessed per row activation (Byte)
system.mem_ctrl.dram.bytesPerActivate::512-639          116      4.37%     96.99% # Bytes accessed per row activation (Byte)
system.mem_ctrl.dram.bytesPerActivate::640-767           43      1.62%     98.61% # Bytes accessed per row activation (Byte)
system.mem_ctrl.dram.bytesPerActivate::768-895           21      0.79%     99.40% # Bytes accessed per row activation (Byte)
system.mem_ctrl.dram.bytesPerActivate::896-1023            8      0.30%     99.70% # Bytes accessed per row activation (Byte)
system.mem_ctrl.dram.bytesPerActivate::1024-1151            8      0.30%    100.00% # Bytes accessed per row activation (Byte)
system.mem_ctrl.dram.bytesPerActivate::total         2656                       # Bytes accessed per row activation (Byte)
system.mem_ctrl.dram.dramBytesRead             434240                       # Total bytes read (Byte)
system.mem_ctrl.dram.dramBytesWritten           34112                       # Total bytes written (Byte)
system.mem_ctrl.dram.avgRdBW               170.022418                       # Average DRAM read bandwidth in MiBytes/s ((Byte/Second))
system.mem_ctrl.dram.avgWrBW                13.356219                       # Average DRAM write bandwidth in MiBytes/s ((Byte/Second))
system.mem_ctrl.dram.peakBW                  12800.00                       # Theoretical peak bandwidth in MiByte/s ((Byte/Second))
system.mem_ctrl.dram.busUtil                     1.43                       # Data bus utilization in percentage (Ratio)
system.mem_ctrl.dram.busUtilRead                 1.33                       # Data bus utilization in percentage for reads (Ratio)
system.mem_ctrl.dram.busUtilWrite                0.10                       # Data bus utilization in percentage for writes (Ratio)
system.mem_ctrl.dram.pageHitRate                63.69                       # Row buffer hit rate, read and write combined (Ratio)
system.mem_ctrl.dram.power_state.pwrStateResidencyTicks::UNDEFINED   2554016148                       # Cumulative time (in ticks) in various power states (Tick)
system.mem_ctrl.dram.rank0.actEnergy         10738560                       # Energy for activate commands per rank (pJ) (Joule)
system.mem_ctrl.dram.rank0.preEnergy          5711475                       # Energy for precharge commands per rank (pJ) (Joule)
system.mem_ctrl.dram.rank0.readEnergy        25025700                       # Energy for read commands per rank (pJ) (Joule)
system.mem_ctrl.dram.rank0.writeEnergy        2004480                       # Energy for write commands per rank (pJ) (Joule)
system.mem_ctrl.dram.rank0.refreshEnergy 201601920.000000                       # Energy for refresh commands per rank (pJ) (Joule)
system.mem_ctrl.dram.rank0.actBackEnergy    991760670                       # Energy for active background per rank (pJ) (Joule)
system.mem_ctrl.dram.rank0.preBackEnergy    145574880                       # Energy for precharge background per rank (pJ) (Joule)
system.mem_ctrl.dram.rank0.actPowerDownEnergy            0                       # Energy for active power-down per rank (pJ) (Joule)
system.mem_ctrl.dram.rank0.prePowerDownEnergy            0                       # Energy for precharge power-down per rank (pJ) (Joule)
system.mem_ctrl.dram.rank0.selfRefreshEnergy            0                       # Energy for self refresh per rank (pJ) (Joule)
system.mem_ctrl.dram.rank0.totalEnergy     1382417685                       # Total energy per rank (pJ) (Joule)
system.mem_ctrl.dram.rank0.averagePower    541.272100                       # Core power per rank (mW) (Watt)
system.mem_ctrl.dram.rank0.totalIdleTime            0                       # Total Idle time Per DRAM Rank (Tick)
system.mem_ctrl.dram.rank0.pwrStateTime::IDLE    369665646                       # Time in different power states (Tick)
system.mem_ctrl.dram.rank0.pwrStateTime::REF     85280000                       # Time in different power states (Tick)
system.mem_ctrl.dram.rank0.pwrStateTime::SREF            0                       # Time in different power states (Tick)
system.mem_ctrl.dram.rank0.pwrStateTime::PRE_PDN            0                       # Time in different power states (Tick)
system.mem_ctrl.dram.rank0.pwrStateTime::ACT   2099070502                       # Time in different power states (Tick)
system.mem_ctrl.dram.rank0.pwrStateTime::ACT_PDN            0                       # Time in different power states (Tick)
system.mem_ctrl.dram.rank1.actEnergy          8232420                       # Energy for activate commands per rank (pJ) (Joule)
system.mem_ctrl.dram.rank1.preEnergy          4368045                       # Energy for precharge commands per rank (pJ) (Joule)
system.mem_ctrl.dram.rank1.readEnergy        23426340                       # Energy for read commands per rank (pJ) (Joule)
system.mem_ctrl.dram.rank1.writeEnergy         777780                       # Energy for write commands per rank (pJ) (Joule)
system.mem_ctrl.dram.rank1.refreshEnergy 201601920.000000                       # Energy for refresh commands per rank (pJ) (Joule)
system.mem_ctrl.dram.rank1.actBackEnergy    954263220                       # Energy for active background per rank (pJ) (Joule)
system.mem_ctrl.dram.rank1.preBackEnergy    177151680                       # Energy for precharge background per rank (pJ) (Joule)
system.mem_ctrl.dram.rank1.actPowerDownEnergy            0                       # Energy for active power-down per rank (pJ) (Joule)
system.mem_ctrl.dram.rank1.prePowerDownEnergy            0                       # Energy for precharge power-down per rank (pJ) (Joule)
system.mem_ctrl.dram.rank1.selfRefreshEnergy            0                       # Energy for self refresh per rank (pJ) (Joule)
system.mem_ctrl.dram.rank1.totalEnergy     1369821405                       # Total energy per rank (pJ) (Joule)
system.mem_ctrl.dram.rank1.averagePower    536.340150                       # Core power per rank (mW) (Watt)
system.mem_ctrl.dram.rank1.totalIdleTime            0                       # Total Idle time Per DRAM Rank (Tick)
system.mem_ctrl.dram.rank1.pwrStateTime::IDLE    452118557                       # Time in different power states (Tick)
system.mem_ctrl.dram.rank1.pwrStateTime::REF     85280000                       # Time in different power states (Tick)
system.mem_ctrl.dram.rank1.pwrStateTime::SREF            0                       # Time in different power states (Tick)
system.mem_ctrl.dram.rank1.pwrStateTime::PRE_PDN            0                       # Time in different power states (Tick)
system.mem_ctrl.dram.rank1.pwrStateTime::ACT   2016617591                       # Time in different power states (Tick)
system.mem_ctrl.dram.rank1.pwrStateTime::ACT_PDN            0                       # Time in different power states (Tick)
system.mem_ctrl.power_state.pwrStateResidencyTicks::UNDEFINED   2554016148                       # Cumulative time (in ticks) in various power states (Tick)
system.membus.transDist::ReadResp                6875                       # Transaction distribution (Count)
system.membus.transDist::WritebackDirty           737                       # Transaction distribution (Count)
system.membus.transDist::CleanEvict              6507                       # Transaction distribution (Count)
system.membus.transDist::ReadExReq                369                       # Transaction distribution (Count)
system.membus.transDist::ReadExResp               369                       # Transaction distribution (Count)
system.membus.transDist::ReadSharedReq           6874                       # Transaction distribution (Count)
system.membus.pktCount_system.cpu.l1d.mem_side_port::system.mem_ctrl.port         7587                       # Packet count per connected requestor and responder (Count)
system.membus.pktCount_system.cpu.l1d.mem_side_port::total         7587                       # Packet count per connected requestor and responder (Count)
system.membus.pktCount_system.cpu.l1i.mem_side_port::system.mem_ctrl.port        14144                       # Packet count per connected requestor and responder (Count)
system.membus.pktCount_system.cpu.l1i.mem_side_port::total        14144                       # Packet count per connected requestor and responder (Count)
system.membus.pktCount::total                   21731                       # Packet count per connected requestor and responder (Count)
system.membus.pktSize_system.cpu.l1d.mem_side_port::system.mem_ctrl.port       209024                       # Cumulative packet size per connected requestor and responder (Byte)
system.membus.pktSize_system.cpu.l1d.mem_side_port::total       209024                       # Cumulative packet size per connected requestor and responder (Byte)
system.membus.pktSize_system.cpu.l1i.mem_side_port::system.mem_ctrl.port       301760                       # Cumulative packet size per connected requestor and responder (Byte)
system.membus.pktSize_system.cpu.l1i.mem_side_port::total       301760                       # Cumulative packet size per connected requestor and responder (Byte)
system.membus.pktSize::total                   510784                       # Cumulative packet size per connected requestor and responder (Byte)
system.membus.snoops                                0                       # Total snoops (Count)
system.membus.snoopTraffic                          0                       # Total snoop traffic (Byte)
system.membus.snoopFanout::samples               7243                       # Request fanout histogram (Count)
system.membus.snoopFanout::mean              0.000552                       # Request fanout histogram (Count)
system.membus.snoopFanout::stdev             0.023495                       # Request fanout histogram (Count)
system.membus.snoopFanout::underflows               0      0.00%      0.00% # Request fanout histogram (Count)
system.membus.snoopFanout::0                     7239     99.94%     99.94% # Request fanout histogram (Count)
system.membus.snoopFanout::1                        4      0.06%    100.00% # Request fanout histogram (Count)
system.membus.snoopFanout::2                        0      0.00%    100.00% # Request fanout histogram (Count)
system.membus.snoopFanout::overflows                0      0.00%    100.00% # Request fanout histogram (Count)
system.membus.snoopFanout::min_value                0                       # Request fanout histogram (Count)
system.membus.snoopFanout::max_value                1                       # Request fanout histogram (Count)
system.membus.snoopFanout::total                 7243                       # Request fanout histogram (Count)
system.membus.power_state.pwrStateResidencyTicks::UNDEFINED   2554016148                       # Cumulative time (in ticks) in various power states (Tick)
system.membus.reqLayer2.occupancy           232460855                       # Layer occupancy (ticks) (Tick)
system.membus.reqLayer2.utilization               0.1                       # Layer utilization (Ratio)
system.membus.respLayer2.occupancy          172507507                       # Layer occupancy (ticks) (Tick)
system.membus.respLayer2.utilization              0.1                       # Layer utilization (Ratio)
system.membus.respLayer3.occupancy          320738553                       # Layer occupancy (ticks) (Tick)
system.membus.respLayer3.utilization              0.1                       # Layer utilization (Ratio)
system.membus.snoop_filter.totRequests          14487                       # Total number of requests made to the snoop filter. (Count)
system.membus.snoop_filter.hitSingleRequests         7244                       # Number of requests hitting in the snoop filter with a single holder of the requested data. (Count)
system.membus.snoop_filter.hitMultiRequests            4                       # Number of requests hitting in the snoop filter with multiple (>1) holders of the requested data. (Count)
system.membus.snoop_filter.totSnoops                0                       # Total number of snoops made to the snoop filter. (Count)
system.membus.snoop_filter.hitSingleSnoops            0                       # Number of snoops hitting in the snoop filter with a single holder of the requested data. (Count)
system.membus.snoop_filter.hitMultiSnoops            0                       # Number of snoops hitting in the snoop filter with multiple (>1) holders of the requested data. (Count)
system.workload.inst.arm                            0                       # number of arm instructions executed (Count)
system.workload.inst.quiesce                        0                       # number of quiesce instructions executed (Count)
system.cpu.idleCycles                           42796                       # Total number of cycles that the object has spent stopped (Unspecified)
system.cpu.tickCycles                          148760                       # Number of cycles that the object actually ticked (Unspecified)

---------- End Simulation Statistics   ----------
