
---------- Begin Simulation Statistics ----------
simSeconds                                   2.021648                       # Number of seconds simulated (Second)
simTicks                                 2021648310862                       # Number of ticks simulated (Tick)
finalTick                                2021648310862                       # Number of ticks from beginning of simulation (restored from checkpoints and never reset) (Tick)
simFreq                                  1000000000000                       # The number of ticks per simulated second ((Tick/Second))
hostSeconds                                   1803.98                       # Real time elapsed on the host (Second)
hostTickRate                               1120660015                       # The number of ticks simulated per host second (ticks/s) ((Tick/Second))
hostMemory                                    8720636                       # Number of bytes of host memory used (Byte)
simInsts                                    222556215                       # Number of instructions simulated (Count)
simOps                                      381351097                       # Number of ops (including micro ops) simulated (Count)
hostInstRate                                   123370                       # Simulator instruction rate (inst/s) ((Count/Second))
hostOpRate                                     211394                       # Simulator op (including micro ops) rate (op/s) ((Count/Second))
system.clk_domain.clock                         13333                       # Clock period in ticks (Tick)
system.clk_domain.voltage_domain.voltage            1                       # Voltage in Volts (Volt)
system.cpu.numCycles                        151627415                       # Number of cpu cycles simulated (Cycle)
system.cpu.cpi                               0.681299                       # CPI: cycles per instruction (core level) ((Cycle/Count))
system.cpu.ipc                               1.467783                       # IPC: instructions per cycle (core level) ((Count/Cycle))
system.cpu.numWorkItemsStarted                      0                       # Number of work items this cpu started (Count)
system.cpu.numWorkItemsCompleted                    0                       # Number of work items this cpu completed (Count)
system.cpu.instsAdded                       424726399                       # Number of instructions added to the IQ (excludes non-spec) (Count)
system.cpu.nonSpecInstsAdded                     3028                       # Number of non-speculative instructions added to the IQ (Count)
system.cpu.instsIssued                      411828549                       # Number of instructions issued (Count)
system.cpu.squashedInstsIssued                   9631                       # Number of squashed instructions issued (Count)
system.cpu.squashedInstsExamined             43378309                       # Number of squashed instructions iterated over during squash; mainly for profiling (Count)
system.cpu.squashedOperandsExamined          70440110                       # Number of squashed operands that are examined and possibly removed from graph (Count)
system.cpu.squashedNonSpecRemoved                 280                       # Number of squashed non-spec instructions that were removed (Count)
system.cpu.numIssuedDist::samples           151121480                       # Number of insts issued each cycle (Count)
system.cpu.numIssuedDist::mean               2.725149                       # Number of insts issued each cycle (Count)
system.cpu.numIssuedDist::stdev              2.760505                       # Number of insts issued each cycle (Count)
system.cpu.numIssuedDist::underflows                0      0.00%      0.00% # Number of insts issued each cycle (Count)
system.cpu.numIssuedDist::0                  59882243     39.63%     39.63% # Number of insts issued each cycle (Count)
system.cpu.numIssuedDist::1                  10178044      6.74%     46.36% # Number of insts issued each cycle (Count)
system.cpu.numIssuedDist::2                   9637952      6.38%     52.74% # Number of insts issued each cycle (Count)
system.cpu.numIssuedDist::3                   9667901      6.40%     59.14% # Number of insts issued each cycle (Count)
system.cpu.numIssuedDist::4                  15084348      9.98%     69.12% # Number of insts issued each cycle (Count)
system.cpu.numIssuedDist::5                  15053390      9.96%     79.08% # Number of insts issued each cycle (Count)
system.cpu.numIssuedDist::6                  12280193      8.13%     87.20% # Number of insts issued each cycle (Count)
system.cpu.numIssuedDist::7                  10613874      7.02%     94.23% # Number of insts issued each cycle (Count)
system.cpu.numIssuedDist::8                   8723535      5.77%    100.00% # Number of insts issued each cycle (Count)
system.cpu.numIssuedDist::overflows                 0      0.00%    100.00% # Number of insts issued each cycle (Count)
system.cpu.numIssuedDist::min_value                 0                       # Number of insts issued each cycle (Count)
system.cpu.numIssuedDist::max_value                 8                       # Number of insts issued each cycle (Count)
system.cpu.numIssuedDist::total             151121480                       # Number of insts issued each cycle (Count)
system.cpu.statFuBusy::No_OpClass                   0      0.00%      0.00% # attempts to use FU when none available (Count)
system.cpu.statFuBusy::IntAlu                 3538486     86.91%     86.91% # attempts to use FU when none available (Count)
system.cpu.statFuBusy::IntMult                      0      0.00%     86.91% # attempts to use FU when none available (Count)
system.cpu.statFuBusy::IntDiv                       0      0.00%     86.91% # attempts to use FU when none available (Count)
system.cpu.statFuBusy::FloatAdd                     0      0.00%     86.91% # attempts to use FU when none available (Count)
system.cpu.statFuBusy::FloatCmp                     0      0.00%     86.91% # attempts to use FU when none available (Count)
system.cpu.statFuBusy::FloatCvt                     0      0.00%     86.91% # attempts to use FU when none available (Count)
system.cpu.statFuBusy::FloatMult                    0      0.00%     86.91% # attempts to use FU when none available (Count)
system.cpu.statFuBusy::FloatMultAcc                 0      0.00%     86.91% # attempts to use FU when none available (Count)
system.cpu.statFuBusy::FloatDiv                     0      0.00%     86.91% # attempts to use FU when none available (Count)
system.cpu.statFuBusy::FloatMisc                    0      0.00%     86.91% # attempts to use FU when none available (Count)
system.cpu.statFuBusy::FloatSqrt                    0      0.00%     86.91% # attempts to use FU when none available (Count)
system.cpu.statFuBusy::SimdAdd                      0      0.00%     86.91% # attempts to use FU when none available (Count)
system.cpu.statFuBusy::SimdAddAcc                   0      0.00%     86.91% # attempts to use FU when none available (Count)
system.cpu.statFuBusy::SimdAlu                  83654      2.05%     88.97% # attempts to use FU when none available (Count)
system.cpu.statFuBusy::SimdCmp                      0      0.00%     88.97% # attempts to use FU when none available (Count)
system.cpu.statFuBusy::SimdCvt                    218      0.01%     88.97% # attempts to use FU when none available (Count)
system.cpu.statFuBusy::SimdMisc                    16      0.00%     88.97% # attempts to use FU when none available (Count)
system.cpu.statFuBusy::SimdMult                     0      0.00%     88.97% # attempts to use FU when none available (Count)
system.cpu.statFuBusy::SimdMultAcc                  0      0.00%     88.97% # attempts to use FU when none available (Count)
system.cpu.statFuBusy::SimdMatMultAcc               0      0.00%     88.97% # attempts to use FU when none available (Count)
system.cpu.statFuBusy::SimdShift                   34      0.00%     88.97% # attempts to use FU when none available (Count)
system.cpu.statFuBusy::SimdShiftAcc                 0      0.00%     88.97% # attempts to use FU when none available (Count)
system.cpu.statFuBusy::SimdDiv                      0      0.00%     88.97% # attempts to use FU when none available (Count)
system.cpu.statFuBusy::SimdSqrt                     0      0.00%     88.97% # attempts to use FU when none available (Count)
system.cpu.statFuBusy::SimdFloatAdd                 0      0.00%     88.97% # attempts to use FU when none available (Count)
system.cpu.statFuBusy::SimdFloatAlu                 0      0.00%     88.97% # attempts to use FU when none available (Count)
system.cpu.statFuBusy::SimdFloatCmp                 0      0.00%     88.97% # attempts to use FU when none available (Count)
system.cpu.statFuBusy::SimdFloatCvt                 0      0.00%     88.97% # attempts to use FU when none available (Count)
system.cpu.statFuBusy::SimdFloatDiv                 0      0.00%     88.97% # attempts to use FU when none available (Count)
system.cpu.statFuBusy::SimdFloatMisc                0      0.00%     88.97% # attempts to use FU when none available (Count)
system.cpu.statFuBusy::SimdFloatMult                0      0.00%     88.97% # attempts to use FU when none available (Count)
system.cpu.statFuBusy::SimdFloatMultAcc             0      0.00%     88.97% # attempts to use FU when none available (Count)
system.cpu.statFuBusy::SimdFloatMatMultAcc            0      0.00%     88.97% # attempts to use FU when none available (Count)
system.cpu.statFuBusy::SimdFloatSqrt                0      0.00%     88.97% # attempts to use FU when none available (Count)
system.cpu.statFuBusy::SimdReduceAdd                0      0.00%     88.97% # attempts to use FU when none available (Count)
system.cpu.statFuBusy::SimdReduceAlu                0      0.00%     88.97% # attempts to use FU when none available (Count)
system.cpu.statFuBusy::SimdReduceCmp                0      0.00%     88.97% # attempts to use FU when none available (Count)
system.cpu.statFuBusy::SimdFloatReduceAdd            0      0.00%     88.97% # attempts to use FU when none available (Count)
system.cpu.statFuBusy::SimdFloatReduceCmp            0      0.00%     88.97% # attempts to use FU when none available (Count)
system.cpu.statFuBusy::SimdAes                      0      0.00%     88.97% # attempts to use FU when none available (Count)
system.cpu.statFuBusy::SimdAesMix                   0      0.00%     88.97% # attempts to use FU when none available (Count)
system.cpu.statFuBusy::SimdSha1Hash                 0      0.00%     88.97% # attempts to use FU when none available (Count)
system.cpu.statFuBusy::SimdSha1Hash2                0      0.00%     88.97% # attempts to use FU when none available (Count)
system.cpu.statFuBusy::SimdSha256Hash               0      0.00%     88.97% # attempts to use FU when none available (Count)
system.cpu.statFuBusy::SimdSha256Hash2              0      0.00%     88.97% # attempts to use FU when none available (Count)
system.cpu.statFuBusy::SimdShaSigma2                0      0.00%     88.97% # attempts to use FU when none available (Count)
system.cpu.statFuBusy::SimdShaSigma3                0      0.00%     88.97% # attempts to use FU when none available (Count)
system.cpu.statFuBusy::SimdPredAlu                  0      0.00%     88.97% # attempts to use FU when none available (Count)
system.cpu.statFuBusy::Matrix                       0      0.00%     88.97% # attempts to use FU when none available (Count)
system.cpu.statFuBusy::MatrixMov                    0      0.00%     88.97% # attempts to use FU when none available (Count)
system.cpu.statFuBusy::MatrixOP                     0      0.00%     88.97% # attempts to use FU when none available (Count)
system.cpu.statFuBusy::MemRead                 268227      6.59%     95.56% # attempts to use FU when none available (Count)
system.cpu.statFuBusy::MemWrite                179728      4.41%     99.98% # attempts to use FU when none available (Count)
system.cpu.statFuBusy::FloatMemRead               563      0.01%     99.99% # attempts to use FU when none available (Count)
system.cpu.statFuBusy::FloatMemWrite              417      0.01%    100.00% # attempts to use FU when none available (Count)
system.cpu.statFuBusy::IprAccess                    0      0.00%    100.00% # attempts to use FU when none available (Count)
system.cpu.statFuBusy::InstPrefetch                 0      0.00%    100.00% # attempts to use FU when none available (Count)
system.cpu.statFuBusy::SimdUnitStrideLoad            0      0.00%    100.00% # attempts to use FU when none available (Count)
system.cpu.statFuBusy::SimdUnitStrideStore            0      0.00%    100.00% # attempts to use FU when none available (Count)
system.cpu.statFuBusy::SimdUnitStrideMaskLoad            0      0.00%    100.00% # attempts to use FU when none available (Count)
system.cpu.statFuBusy::SimdUnitStrideMaskStore            0      0.00%    100.00% # attempts to use FU when none available (Count)
system.cpu.statFuBusy::SimdStridedLoad              0      0.00%    100.00% # attempts to use FU when none available (Count)
system.cpu.statFuBusy::SimdStridedStore             0      0.00%    100.00% # attempts to use FU when none available (Count)
system.cpu.statFuBusy::SimdIndexedLoad              0      0.00%    100.00% # attempts to use FU when none available (Count)
system.cpu.statFuBusy::SimdIndexedStore             0      0.00%    100.00% # attempts to use FU when none available (Count)
system.cpu.statFuBusy::SimdWholeRegisterLoad            0      0.00%    100.00% # attempts to use FU when none available (Count)
system.cpu.statFuBusy::SimdWholeRegisterStore            0      0.00%    100.00% # attempts to use FU when none available (Count)
system.cpu.statFuBusy::SimdUnitStrideFaultOnlyFirstLoad            0      0.00%    100.00% # attempts to use FU when none available (Count)
system.cpu.statFuBusy::SimdUnitStrideSegmentedLoad            0      0.00%    100.00% # attempts to use FU when none available (Count)
system.cpu.statFuBusy::SimdUnitStrideSegmentedStore            0      0.00%    100.00% # attempts to use FU when none available (Count)
system.cpu.statFuBusy::SimdExt                      0      0.00%    100.00% # attempts to use FU when none available (Count)
system.cpu.statFuBusy::SimdFloatExt                 0      0.00%    100.00% # attempts to use FU when none available (Count)
system.cpu.statFuBusy::SimdConfig                   0      0.00%    100.00% # attempts to use FU when none available (Count)
system.cpu.statIssuedInstType_0::No_OpClass      8051863      1.96%      1.96% # Number of instructions issued per FU type, per thread (Count)
system.cpu.statIssuedInstType_0::IntAlu     312394363     75.86%     77.81% # Number of instructions issued per FU type, per thread (Count)
system.cpu.statIssuedInstType_0::IntMult       582397      0.14%     77.95% # Number of instructions issued per FU type, per thread (Count)
system.cpu.statIssuedInstType_0::IntDiv         43364      0.01%     77.96% # Number of instructions issued per FU type, per thread (Count)
system.cpu.statIssuedInstType_0::FloatAdd       424202      0.10%     78.07% # Number of instructions issued per FU type, per thread (Count)
system.cpu.statIssuedInstType_0::FloatCmp            0      0.00%     78.07% # Number of instructions issued per FU type, per thread (Count)
system.cpu.statIssuedInstType_0::FloatCvt         1340      0.00%     78.07% # Number of instructions issued per FU type, per thread (Count)
system.cpu.statIssuedInstType_0::FloatMult            0      0.00%     78.07% # Number of instructions issued per FU type, per thread (Count)
system.cpu.statIssuedInstType_0::FloatMultAcc            0      0.00%     78.07% # Number of instructions issued per FU type, per thread (Count)
system.cpu.statIssuedInstType_0::FloatDiv            0      0.00%     78.07% # Number of instructions issued per FU type, per thread (Count)
system.cpu.statIssuedInstType_0::FloatMisc            0      0.00%     78.07% # Number of instructions issued per FU type, per thread (Count)
system.cpu.statIssuedInstType_0::FloatSqrt            0      0.00%     78.07% # Number of instructions issued per FU type, per thread (Count)
system.cpu.statIssuedInstType_0::SimdAdd         7371      0.00%     78.07% # Number of instructions issued per FU type, per thread (Count)
system.cpu.statIssuedInstType_0::SimdAddAcc            0      0.00%     78.07% # Number of instructions issued per FU type, per thread (Count)
system.cpu.statIssuedInstType_0::SimdAlu      1020009      0.25%     78.32% # Number of instructions issued per FU type, per thread (Count)
system.cpu.statIssuedInstType_0::SimdCmp            6      0.00%     78.32% # Number of instructions issued per FU type, per thread (Count)
system.cpu.statIssuedInstType_0::SimdCvt       183192      0.04%     78.36% # Number of instructions issued per FU type, per thread (Count)
system.cpu.statIssuedInstType_0::SimdMisc       265450      0.06%     78.42% # Number of instructions issued per FU type, per thread (Count)
system.cpu.statIssuedInstType_0::SimdMult            0      0.00%     78.42% # Number of instructions issued per FU type, per thread (Count)
system.cpu.statIssuedInstType_0::SimdMultAcc            0      0.00%     78.42% # Number of instructions issued per FU type, per thread (Count)
system.cpu.statIssuedInstType_0::SimdMatMultAcc            0      0.00%     78.42% # Number of instructions issued per FU type, per thread (Count)
system.cpu.statIssuedInstType_0::SimdShift         3950      0.00%     78.43% # Number of instructions issued per FU type, per thread (Count)
system.cpu.statIssuedInstType_0::SimdShiftAcc            0      0.00%     78.43% # Number of instructions issued per FU type, per thread (Count)
system.cpu.statIssuedInstType_0::SimdDiv            0      0.00%     78.43% # Number of instructions issued per FU type, per thread (Count)
system.cpu.statIssuedInstType_0::SimdSqrt            0      0.00%     78.43% # Number of instructions issued per FU type, per thread (Count)
system.cpu.statIssuedInstType_0::SimdFloatAdd        83546      0.02%     78.45% # Number of instructions issued per FU type, per thread (Count)
system.cpu.statIssuedInstType_0::SimdFloatAlu            0      0.00%     78.45% # Number of instructions issued per FU type, per thread (Count)
system.cpu.statIssuedInstType_0::SimdFloatCmp            0      0.00%     78.45% # Number of instructions issued per FU type, per thread (Count)
system.cpu.statIssuedInstType_0::SimdFloatCvt       167092      0.04%     78.49% # Number of instructions issued per FU type, per thread (Count)
system.cpu.statIssuedInstType_0::SimdFloatDiv        83546      0.02%     78.51% # Number of instructions issued per FU type, per thread (Count)
system.cpu.statIssuedInstType_0::SimdFloatMisc            0      0.00%     78.51% # Number of instructions issued per FU type, per thread (Count)
system.cpu.statIssuedInstType_0::SimdFloatMult            0      0.00%     78.51% # Number of instructions issued per FU type, per thread (Count)
system.cpu.statIssuedInstType_0::SimdFloatMultAcc            0      0.00%     78.51% # Number of instructions issued per FU type, per thread (Count)
system.cpu.statIssuedInstType_0::SimdFloatMatMultAcc            0      0.00%     78.51% # Number of instructions issued per FU type, per thread (Count)
system.cpu.statIssuedInstType_0::SimdFloatSqrt            0      0.00%     78.51% # Number of instructions issued per FU type, per thread (Count)
system.cpu.statIssuedInstType_0::SimdReduceAdd            0      0.00%     78.51% # Number of instructions issued per FU type, per thread (Count)
system.cpu.statIssuedInstType_0::SimdReduceAlu            0      0.00%     78.51% # Number of instructions issued per FU type, per thread (Count)
system.cpu.statIssuedInstType_0::SimdReduceCmp            0      0.00%     78.51% # Number of instructions issued per FU type, per thread (Count)
system.cpu.statIssuedInstType_0::SimdFloatReduceAdd            0      0.00%     78.51% # Number of instructions issued per FU type, per thread (Count)
system.cpu.statIssuedInstType_0::SimdFloatReduceCmp            0      0.00%     78.51% # Number of instructions issued per FU type, per thread (Count)
system.cpu.statIssuedInstType_0::SimdAes            0      0.00%     78.51% # Number of instructions issued per FU type, per thread (Count)
system.cpu.statIssuedInstType_0::SimdAesMix            0      0.00%     78.51% # Number of instructions issued per FU type, per thread (Count)
system.cpu.statIssuedInstType_0::SimdSha1Hash            0      0.00%     78.51% # Number of instructions issued per FU type, per thread (Count)
system.cpu.statIssuedInstType_0::SimdSha1Hash2            0      0.00%     78.51% # Number of instructions issued per FU type, per thread (Count)
system.cpu.statIssuedInstType_0::SimdSha256Hash            0      0.00%     78.51% # Number of instructions issued per FU type, per thread (Count)
system.cpu.statIssuedInstType_0::SimdSha256Hash2            0      0.00%     78.51% # Number of instructions issued per FU type, per thread (Count)
system.cpu.statIssuedInstType_0::SimdShaSigma2            0      0.00%     78.51% # Number of instructions issued per FU type, per thread (Count)
system.cpu.statIssuedInstType_0::SimdShaSigma3            0      0.00%     78.51% # Number of instructions issued per FU type, per thread (Count)
system.cpu.statIssuedInstType_0::SimdPredAlu            0      0.00%     78.51% # Number of instructions issued per FU type, per thread (Count)
system.cpu.statIssuedInstType_0::Matrix             0      0.00%     78.51% # Number of instructions issued per FU type, per thread (Count)
system.cpu.statIssuedInstType_0::MatrixMov            0      0.00%     78.51% # Number of instructions issued per FU type, per thread (Count)
system.cpu.statIssuedInstType_0::MatrixOP            0      0.00%     78.51% # Number of instructions issued per FU type, per thread (Count)
system.cpu.statIssuedInstType_0::MemRead     53771437     13.06%     91.56% # Number of instructions issued per FU type, per thread (Count)
system.cpu.statIssuedInstType_0::MemWrite     33874210      8.23%     99.79% # Number of instructions issued per FU type, per thread (Count)
system.cpu.statIssuedInstType_0::FloatMemRead       771879      0.19%     99.98% # Number of instructions issued per FU type, per thread (Count)
system.cpu.statIssuedInstType_0::FloatMemWrite        99332      0.02%    100.00% # Number of instructions issued per FU type, per thread (Count)
system.cpu.statIssuedInstType_0::IprAccess            0      0.00%    100.00% # Number of instructions issued per FU type, per thread (Count)
system.cpu.statIssuedInstType_0::InstPrefetch            0      0.00%    100.00% # Number of instructions issued per FU type, per thread (Count)
system.cpu.statIssuedInstType_0::SimdUnitStrideLoad            0      0.00%    100.00% # Number of instructions issued per FU type, per thread (Count)
system.cpu.statIssuedInstType_0::SimdUnitStrideStore            0      0.00%    100.00% # Number of instructions issued per FU type, per thread (Count)
system.cpu.statIssuedInstType_0::SimdUnitStrideMaskLoad            0      0.00%    100.00% # Number of instructions issued per FU type, per thread (Count)
system.cpu.statIssuedInstType_0::SimdUnitStrideMaskStore            0      0.00%    100.00% # Number of instructions issued per FU type, per thread (Count)
system.cpu.statIssuedInstType_0::SimdStridedLoad            0      0.00%    100.00% # Number of instructions issued per FU type, per thread (Count)
system.cpu.statIssuedInstType_0::SimdStridedStore            0      0.00%    100.00% # Number of instructions issued per FU type, per thread (Count)
system.cpu.statIssuedInstType_0::SimdIndexedLoad            0      0.00%    100.00% # Number of instructions issued per FU type, per thread (Count)
system.cpu.statIssuedInstType_0::SimdIndexedStore            0      0.00%    100.00% # Number of instructions issued per FU type, per thread (Count)
system.cpu.statIssuedInstType_0::SimdWholeRegisterLoad            0      0.00%    100.00% # Number of instructions issued per FU type, per thread (Count)
system.cpu.statIssuedInstType_0::SimdWholeRegisterStore            0      0.00%    100.00% # Number of instructions issued per FU type, per thread (Count)
system.cpu.statIssuedInstType_0::SimdUnitStrideFaultOnlyFirstLoad            0      0.00%    100.00% # Number of instructions issued per FU type, per thread (Count)
system.cpu.statIssuedInstType_0::SimdUnitStrideSegmentedLoad            0      0.00%    100.00% # Number of instructions issued per FU type, per thread (Count)
system.cpu.statIssuedInstType_0::SimdUnitStrideSegmentedStore            0      0.00%    100.00% # Number of instructions issued per FU type, per thread (Count)
system.cpu.statIssuedInstType_0::SimdExt            0      0.00%    100.00% # Number of instructions issued per FU type, per thread (Count)
system.cpu.statIssuedInstType_0::SimdFloatExt            0      0.00%    100.00% # Number of instructions issued per FU type, per thread (Count)
system.cpu.statIssuedInstType_0::SimdConfig            0      0.00%    100.00% # Number of instructions issued per FU type, per thread (Count)
system.cpu.statIssuedInstType_0::total      411828549                       # Number of instructions issued per FU type, per thread (Count)
system.cpu.issueRate                         2.716056                       # Inst issue rate ((Count/Cycle))
system.cpu.fuBusy                             4071343                       # FU busy when requested (Count)
system.cpu.fuBusyRate                        0.009886                       # FU busy rate (busy events/executed inst) ((Count/Count))
system.cpu.intInstQueueReads                972543479                       # Number of integer instruction queue reads (Count)
system.cpu.intInstQueueWrites               463548294                       # Number of integer instruction queue writes (Count)
system.cpu.intInstQueueWakeupAccesses       405485176                       # Number of integer instruction queue wakeup accesses (Count)
system.cpu.fpInstQueueReads                   6316072                       # Number of floating instruction queue reads (Count)
system.cpu.fpInstQueueWrites                  4563161                       # Number of floating instruction queue writes (Count)
system.cpu.fpInstQueueWakeupAccesses          3029476                       # Number of floating instruction queue wakeup accesses (Count)
system.cpu.vecInstQueueReads                        0                       # Number of vector instruction queue reads (Count)
system.cpu.vecInstQueueWrites                       0                       # Number of vector instruction queue writes (Count)
system.cpu.vecInstQueueWakeupAccesses               0                       # Number of vector instruction queue wakeup accesses (Count)
system.cpu.intAluAccesses                   404647826                       # Number of integer alu accesses (Count)
system.cpu.fpAluAccesses                      3200203                       # Number of floating point alu accesses (Count)
system.cpu.vecAluAccesses                           0                       # Number of vector alu accesses (Count)
system.cpu.numSquashedInsts                   2453524                       # Number of squashed instructions skipped in execute (Count)
system.cpu.numSwp                                   0                       # Number of swp insts executed (Count)
system.cpu.timesIdled                           77644                       # Number of times that the entire CPU went into an idle state and unscheduled itself (Count)
system.cpu.idleCycles                          505935                       # Total number of cycles that the CPU has spent unscheduled due to idling (Cycle)
system.cpu.MemDepUnit__0.insertedLoads       57584000                       # Number of loads inserted to the mem dependence unit. (Count)
system.cpu.MemDepUnit__0.insertedStores      35829664                       # Number of stores inserted to the mem dependence unit. (Count)
system.cpu.MemDepUnit__0.conflictingLoads     19748231                       # Number of conflicting loads. (Count)
system.cpu.MemDepUnit__0.conflictingStores     10785080                       # Number of conflicting stores. (Count)
system.cpu.MemDepUnit__1.insertedLoads              0                       # Number of loads inserted to the mem dependence unit. (Count)
system.cpu.MemDepUnit__1.insertedStores             0                       # Number of stores inserted to the mem dependence unit. (Count)
system.cpu.MemDepUnit__1.conflictingLoads            0                       # Number of conflicting loads. (Count)
system.cpu.MemDepUnit__1.conflictingStores            0                       # Number of conflicting stores. (Count)
system.cpu.MemDepUnit__2.insertedLoads              0                       # Number of loads inserted to the mem dependence unit. (Count)
system.cpu.MemDepUnit__2.insertedStores             0                       # Number of stores inserted to the mem dependence unit. (Count)
system.cpu.MemDepUnit__2.conflictingLoads            0                       # Number of conflicting loads. (Count)
system.cpu.MemDepUnit__2.conflictingStores            0                       # Number of conflicting stores. (Count)
system.cpu.MemDepUnit__3.insertedLoads              0                       # Number of loads inserted to the mem dependence unit. (Count)
system.cpu.MemDepUnit__3.insertedStores             0                       # Number of stores inserted to the mem dependence unit. (Count)
system.cpu.MemDepUnit__3.conflictingLoads            0                       # Number of conflicting loads. (Count)
system.cpu.MemDepUnit__3.conflictingStores            0                       # Number of conflicting stores. (Count)
system.cpu.branchPred.lookups_0::NoBranch         2266      0.00%      0.00% # Number of BP lookups (Count)
system.cpu.branchPred.lookups_0::Return       3443230      6.33%      6.34% # Number of BP lookups (Count)
system.cpu.branchPred.lookups_0::CallDirect      3031104      5.58%     11.91% # Number of BP lookups (Count)
system.cpu.branchPred.lookups_0::CallIndirect         1310      0.00%     11.92% # Number of BP lookups (Count)
system.cpu.branchPred.lookups_0::DirectCond     42421761     78.03%     89.95% # Number of BP lookups (Count)
system.cpu.branchPred.lookups_0::DirectUncond      3866221      7.11%     97.06% # Number of BP lookups (Count)
system.cpu.branchPred.lookups_0::IndirectCond            0      0.00%     97.06% # Number of BP lookups (Count)
system.cpu.branchPred.lookups_0::IndirectUncond      1599382      2.94%    100.00% # Number of BP lookups (Count)
system.cpu.branchPred.lookups_0::total       54365274                       # Number of BP lookups (Count)
system.cpu.branchPred.squashes_0::NoBranch         1953      0.03%      0.03% # Number of branches that got squashed (completely removed) as an earlier branch was mispredicted. (Count)
system.cpu.branchPred.squashes_0::Return       756539     10.08%     10.10% # Number of branches that got squashed (completely removed) as an earlier branch was mispredicted. (Count)
system.cpu.branchPred.squashes_0::CallDirect       345013      4.59%     14.70% # Number of branches that got squashed (completely removed) as an earlier branch was mispredicted. (Count)
system.cpu.branchPred.squashes_0::CallIndirect          705      0.01%     14.71% # Number of branches that got squashed (completely removed) as an earlier branch was mispredicted. (Count)
system.cpu.branchPred.squashes_0::DirectCond      5721536     76.20%     90.91% # Number of branches that got squashed (completely removed) as an earlier branch was mispredicted. (Count)
system.cpu.branchPred.squashes_0::DirectUncond       509164      6.78%     97.69% # Number of branches that got squashed (completely removed) as an earlier branch was mispredicted. (Count)
system.cpu.branchPred.squashes_0::IndirectCond            0      0.00%     97.69% # Number of branches that got squashed (completely removed) as an earlier branch was mispredicted. (Count)
system.cpu.branchPred.squashes_0::IndirectUncond       173705      2.31%    100.00% # Number of branches that got squashed (completely removed) as an earlier branch was mispredicted. (Count)
system.cpu.branchPred.squashes_0::total       7508615                       # Number of branches that got squashed (completely removed) as an earlier branch was mispredicted. (Count)
system.cpu.branchPred.corrected_0::NoBranch          504      0.06%      0.06% # Number of branches that got corrected but not yet commited. Branches get corrected by decode or after execute. Also a branch misprediction can be detected out-of-order. Therefore, a corrected branch might not end up beeing committed in case an even earlier branch was mispredicted (Count)
system.cpu.branchPred.corrected_0::Return           16      0.00%      0.06% # Number of branches that got corrected but not yet commited. Branches get corrected by decode or after execute. Also a branch misprediction can be detected out-of-order. Therefore, a corrected branch might not end up beeing committed in case an even earlier branch was mispredicted (Count)
system.cpu.branchPred.corrected_0::CallDirect       167905     19.67%     19.74% # Number of branches that got corrected but not yet commited. Branches get corrected by decode or after execute. Also a branch misprediction can be detected out-of-order. Therefore, a corrected branch might not end up beeing committed in case an even earlier branch was mispredicted (Count)
system.cpu.branchPred.corrected_0::CallIndirect          243      0.03%     19.76% # Number of branches that got corrected but not yet commited. Branches get corrected by decode or after execute. Also a branch misprediction can be detected out-of-order. Therefore, a corrected branch might not end up beeing committed in case an even earlier branch was mispredicted (Count)
system.cpu.branchPred.corrected_0::DirectCond       682955     80.03%     99.79% # Number of branches that got corrected but not yet commited. Branches get corrected by decode or after execute. Also a branch misprediction can be detected out-of-order. Therefore, a corrected branch might not end up beeing committed in case an even earlier branch was mispredicted (Count)
system.cpu.branchPred.corrected_0::DirectUncond          622      0.07%     99.86% # Number of branches that got corrected but not yet commited. Branches get corrected by decode or after execute. Also a branch misprediction can be detected out-of-order. Therefore, a corrected branch might not end up beeing committed in case an even earlier branch was mispredicted (Count)
system.cpu.branchPred.corrected_0::IndirectCond            0      0.00%     99.86% # Number of branches that got corrected but not yet commited. Branches get corrected by decode or after execute. Also a branch misprediction can be detected out-of-order. Therefore, a corrected branch might not end up beeing committed in case an even earlier branch was mispredicted (Count)
system.cpu.branchPred.corrected_0::IndirectUncond         1157      0.14%    100.00% # Number of branches that got corrected but not yet commited. Branches get corrected by decode or after execute. Also a branch misprediction can be detected out-of-order. Therefore, a corrected branch might not end up beeing committed in case an even earlier branch was mispredicted (Count)
system.cpu.branchPred.corrected_0::total       853402                       # Number of branches that got corrected but not yet commited. Branches get corrected by decode or after execute. Also a branch misprediction can be detected out-of-order. Therefore, a corrected branch might not end up beeing committed in case an even earlier branch was mispredicted (Count)
system.cpu.branchPred.earlyResteers_0::NoBranch            0                       # Number of branches that got redirected after decode. (Count)
system.cpu.branchPred.earlyResteers_0::Return            0                       # Number of branches that got redirected after decode. (Count)
system.cpu.branchPred.earlyResteers_0::CallDirect            0                       # Number of branches that got redirected after decode. (Count)
system.cpu.branchPred.earlyResteers_0::CallIndirect            0                       # Number of branches that got redirected after decode. (Count)
system.cpu.branchPred.earlyResteers_0::DirectCond            0                       # Number of branches that got redirected after decode. (Count)
system.cpu.branchPred.earlyResteers_0::DirectUncond            0                       # Number of branches that got redirected after decode. (Count)
system.cpu.branchPred.earlyResteers_0::IndirectCond            0                       # Number of branches that got redirected after decode. (Count)
system.cpu.branchPred.earlyResteers_0::IndirectUncond            0                       # Number of branches that got redirected after decode. (Count)
system.cpu.branchPred.earlyResteers_0::total            0                       # Number of branches that got redirected after decode. (Count)
system.cpu.branchPred.committed_0::NoBranch          313      0.00%      0.00% # Number of branches finally committed  (Count)
system.cpu.branchPred.committed_0::Return      2686690      5.73%      5.73% # Number of branches finally committed  (Count)
system.cpu.branchPred.committed_0::CallDirect      2686090      5.73%     11.47% # Number of branches finally committed  (Count)
system.cpu.branchPred.committed_0::CallIndirect          605      0.00%     11.47% # Number of branches finally committed  (Count)
system.cpu.branchPred.committed_0::DirectCond     36700225     78.32%     89.79% # Number of branches finally committed  (Count)
system.cpu.branchPred.committed_0::DirectUncond      3357057      7.16%     96.96% # Number of branches finally committed  (Count)
system.cpu.branchPred.committed_0::IndirectCond            0      0.00%     96.96% # Number of branches finally committed  (Count)
system.cpu.branchPred.committed_0::IndirectUncond      1425677      3.04%    100.00% # Number of branches finally committed  (Count)
system.cpu.branchPred.committed_0::total     46856657                       # Number of branches finally committed  (Count)
system.cpu.branchPred.mispredicted_0::NoBranch          313      0.05%      0.05% # Number of committed branches that were mispredicted. (Count)
system.cpu.branchPred.mispredicted_0::Return            1      0.00%      0.05% # Number of committed branches that were mispredicted. (Count)
system.cpu.branchPred.mispredicted_0::CallDirect        86789     14.41%     14.46% # Number of committed branches that were mispredicted. (Count)
system.cpu.branchPred.mispredicted_0::CallIndirect          218      0.04%     14.49% # Number of committed branches that were mispredicted. (Count)
system.cpu.branchPred.mispredicted_0::DirectCond       513698     85.26%     99.76% # Number of committed branches that were mispredicted. (Count)
system.cpu.branchPred.mispredicted_0::DirectUncond          365      0.06%     99.82% # Number of committed branches that were mispredicted. (Count)
system.cpu.branchPred.mispredicted_0::IndirectCond            0      0.00%     99.82% # Number of committed branches that were mispredicted. (Count)
system.cpu.branchPred.mispredicted_0::IndirectUncond         1106      0.18%    100.00% # Number of committed branches that were mispredicted. (Count)
system.cpu.branchPred.mispredicted_0::total       602490                       # Number of committed branches that were mispredicted. (Count)
system.cpu.branchPred.targetProvider_0::NoTarget     20123483     37.02%     37.02% # The component providing the target for taken branches (Count)
system.cpu.branchPred.targetProvider_0::BTB     29288271     53.87%     90.89% # The component providing the target for taken branches (Count)
system.cpu.branchPred.targetProvider_0::RAS      3443228      6.33%     97.22% # The component providing the target for taken branches (Count)
system.cpu.branchPred.targetProvider_0::Indirect      1510292      2.78%    100.00% # The component providing the target for taken branches (Count)
system.cpu.branchPred.targetProvider_0::total     54365274                       # The component providing the target for taken branches (Count)
system.cpu.branchPred.targetWrong_0::NoBranch       426399     50.10%     50.10% # Number of branches where the target was incorrect or not available at prediction time. (Count)
system.cpu.branchPred.targetWrong_0::Return       424607     49.89%     99.98% # Number of branches where the target was incorrect or not available at prediction time. (Count)
system.cpu.branchPred.targetWrong_0::CallDirect           16      0.00%     99.98% # Number of branches where the target was incorrect or not available at prediction time. (Count)
system.cpu.branchPred.targetWrong_0::CallIndirect          139      0.02%    100.00% # Number of branches where the target was incorrect or not available at prediction time. (Count)
system.cpu.branchPred.targetWrong_0::DirectCond            0      0.00%    100.00% # Number of branches where the target was incorrect or not available at prediction time. (Count)
system.cpu.branchPred.targetWrong_0::DirectUncond            0      0.00%    100.00% # Number of branches where the target was incorrect or not available at prediction time. (Count)
system.cpu.branchPred.targetWrong_0::IndirectCond            0      0.00%    100.00% # Number of branches where the target was incorrect or not available at prediction time. (Count)
system.cpu.branchPred.targetWrong_0::IndirectUncond            0      0.00%    100.00% # Number of branches where the target was incorrect or not available at prediction time. (Count)
system.cpu.branchPred.targetWrong_0::total       851161                       # Number of branches where the target was incorrect or not available at prediction time. (Count)
system.cpu.branchPred.condPredicted          42424027                       # Number of conditional branches predicted (Count)
system.cpu.branchPred.condPredictedTaken     22813494                       # Number of conditional branches predicted as taken (Count)
system.cpu.branchPred.condIncorrect            853402                       # Number of conditional branches incorrect (Count)
system.cpu.branchPred.predTakenBTBMiss         335973                       # Number of branches predicted taken but missed in BTB (Count)
system.cpu.branchPred.NotTakenMispredicted       428131                       # Number branches predicted 'not taken' but turned out to be taken (Count)
system.cpu.branchPred.TakenMispredicted        425271                       # Number branches predicted taken but are actually not taken (Count)
system.cpu.branchPred.BTBLookups             54365274                       # Number of BTB lookups (Count)
system.cpu.branchPred.BTBUpdates               426211                       # Number of BTB updates (Count)
system.cpu.branchPred.BTBHits                43083937                       # Number of BTB hits (Count)
system.cpu.branchPred.BTBHitRatio            0.792490                       # BTB Hit Ratio (Ratio)
system.cpu.branchPred.BTBMispredicted          336837                       # Number BTB mispredictions. No target found or target wrong (Count)
system.cpu.branchPred.indirectLookups         1600692                       # Number of indirect predictor lookups. (Count)
system.cpu.branchPred.indirectHits            1510292                       # Number of indirect target hits. (Count)
system.cpu.branchPred.indirectMisses            90400                       # Number of indirect misses. (Count)
system.cpu.branchPred.indirectMispredicted            0                       # Number of mispredicted indirect branches. (Count)
system.cpu.branchPred.btb.lookups::NoBranch         2266      0.00%      0.00% # Number of BTB lookups (Count)
system.cpu.branchPred.btb.lookups::Return      3443230      6.33%      6.34% # Number of BTB lookups (Count)
system.cpu.branchPred.btb.lookups::CallDirect      3031104      5.58%     11.91% # Number of BTB lookups (Count)
system.cpu.branchPred.btb.lookups::CallIndirect         1310      0.00%     11.92% # Number of BTB lookups (Count)
system.cpu.branchPred.btb.lookups::DirectCond     42421761     78.03%     89.95% # Number of BTB lookups (Count)
system.cpu.branchPred.btb.lookups::DirectUncond      3866221      7.11%     97.06% # Number of BTB lookups (Count)
system.cpu.branchPred.btb.lookups::IndirectCond            0      0.00%     97.06% # Number of BTB lookups (Count)
system.cpu.branchPred.btb.lookups::IndirectUncond      1599382      2.94%    100.00% # Number of BTB lookups (Count)
system.cpu.branchPred.btb.lookups::total     54365274                       # Number of BTB lookups (Count)
system.cpu.branchPred.btb.misses::NoBranch          427      0.00%      0.00% # Number of BTB misses (Count)
system.cpu.branchPred.btb.misses::Return      3443230     30.52%     30.53% # Number of BTB misses (Count)
system.cpu.branchPred.btb.misses::CallDirect       168402      1.49%     32.02% # Number of BTB misses (Count)
system.cpu.branchPred.btb.misses::CallIndirect         1310      0.01%     32.03% # Number of BTB misses (Count)
system.cpu.branchPred.btb.misses::DirectCond      6067640     53.78%     85.81% # Number of BTB misses (Count)
system.cpu.branchPred.btb.misses::DirectUncond          946      0.01%     85.82% # Number of BTB misses (Count)
system.cpu.branchPred.btb.misses::IndirectCond            0      0.00%     85.82% # Number of BTB misses (Count)
system.cpu.branchPred.btb.misses::IndirectUncond      1599382     14.18%    100.00% # Number of BTB misses (Count)
system.cpu.branchPred.btb.misses::total      11281337                       # Number of BTB misses (Count)
system.cpu.branchPred.btb.updates::NoBranch            0      0.00%      0.00% # Number of BTB updates (Count)
system.cpu.branchPred.btb.updates::Return            0      0.00%      0.00% # Number of BTB updates (Count)
system.cpu.branchPred.btb.updates::CallDirect       167905     39.39%     39.39% # Number of BTB updates (Count)
system.cpu.branchPred.btb.updates::CallIndirect            0      0.00%     39.39% # Number of BTB updates (Count)
system.cpu.branchPred.btb.updates::DirectCond       257684     60.46%     99.85% # Number of BTB updates (Count)
system.cpu.branchPred.btb.updates::DirectUncond          622      0.15%    100.00% # Number of BTB updates (Count)
system.cpu.branchPred.btb.updates::IndirectCond            0      0.00%    100.00% # Number of BTB updates (Count)
system.cpu.branchPred.btb.updates::IndirectUncond            0      0.00%    100.00% # Number of BTB updates (Count)
system.cpu.branchPred.btb.updates::total       426211                       # Number of BTB updates (Count)
system.cpu.branchPred.btb.mispredict::NoBranch            0      0.00%      0.00% # Number of BTB mispredictions. No target found or target wrong. (Count)
system.cpu.branchPred.btb.mispredict::Return            0      0.00%      0.00% # Number of BTB mispredictions. No target found or target wrong. (Count)
system.cpu.branchPred.btb.mispredict::CallDirect       167905     39.39%     39.39% # Number of BTB mispredictions. No target found or target wrong. (Count)
system.cpu.branchPred.btb.mispredict::CallIndirect            0      0.00%     39.39% # Number of BTB mispredictions. No target found or target wrong. (Count)
system.cpu.branchPred.btb.mispredict::DirectCond       257684     60.46%     99.85% # Number of BTB mispredictions. No target found or target wrong. (Count)
system.cpu.branchPred.btb.mispredict::DirectUncond          622      0.15%    100.00% # Number of BTB mispredictions. No target found or target wrong. (Count)
system.cpu.branchPred.btb.mispredict::IndirectCond            0      0.00%    100.00% # Number of BTB mispredictions. No target found or target wrong. (Count)
system.cpu.branchPred.btb.mispredict::IndirectUncond            0      0.00%    100.00% # Number of BTB mispredictions. No target found or target wrong. (Count)
system.cpu.branchPred.btb.mispredict::total       426211                       # Number of BTB mispredictions. No target found or target wrong. (Count)
system.cpu.branchPred.btb.power_state.pwrStateResidencyTicks::UNDEFINED 2021648310862                       # Cumulative time (in ticks) in various power states (Tick)
system.cpu.branchPred.indirectBranchPred.lookups      1600692                       # Number of lookups (Count)
system.cpu.branchPred.indirectBranchPred.hits      1510292                       # Number of hits of a tag (Count)
system.cpu.branchPred.indirectBranchPred.misses        90400                       # Number of misses (Count)
system.cpu.branchPred.indirectBranchPred.targetRecords         1400                       # Number of targets that where recorded/installed in the cache (Count)
system.cpu.branchPred.indirectBranchPred.indirectRecords      1602092                       # Number of indirect branches/calls recorded in the indirect hist (Count)
system.cpu.branchPred.indirectBranchPred.speculativeOverflows            1                       # Number of times more than the allowed capacity for speculative branches/calls where in flight and destroy the path history (Count)
system.cpu.branchPred.ras.pushes              3788953                       # Number of times a PC was pushed onto the RAS (Count)
system.cpu.branchPred.ras.pops                3788948                       # Number of times a PC was poped from the RAS (Count)
system.cpu.branchPred.ras.squashes            1102257                       # Number of times the stack operation was squashed due to wrong speculation. (Count)
system.cpu.branchPred.ras.used                2686690                       # Number of times the RAS is the provider (Count)
system.cpu.branchPred.ras.correct             2686689                       # Number of times the RAS is the provider and the prediction is correct (Count)
system.cpu.branchPred.ras.incorrect                 1                       # Number of times the RAS is the provider and the prediction is wrong (Count)
system.cpu.commit.commitSquashedInsts        34000291                       # The number of squashed insts skipped by commit (Count)
system.cpu.commit.commitNonSpecStalls            2748                       # The number of times commit has been forced to stall to communicate backwards (Count)
system.cpu.commit.branchMispredicts            684906                       # The number of times a branch was mispredicted (Count)
system.cpu.commit.numCommittedDist::samples    146046796                       # Number of insts commited each cycle (Count)
system.cpu.commit.numCommittedDist::mean     2.611157                       # Number of insts commited each cycle (Count)
system.cpu.commit.numCommittedDist::stdev     2.877488                       # Number of insts commited each cycle (Count)
system.cpu.commit.numCommittedDist::underflows            0      0.00%      0.00% # Number of insts commited each cycle (Count)
system.cpu.commit.numCommittedDist::0        58492651     40.05%     40.05% # Number of insts commited each cycle (Count)
system.cpu.commit.numCommittedDist::1        10066375      6.89%     46.94% # Number of insts commited each cycle (Count)
system.cpu.commit.numCommittedDist::2         7735540      5.30%     52.24% # Number of insts commited each cycle (Count)
system.cpu.commit.numCommittedDist::3        32348782     22.15%     74.39% # Number of insts commited each cycle (Count)
system.cpu.commit.numCommittedDist::4         4680090      3.20%     77.59% # Number of insts commited each cycle (Count)
system.cpu.commit.numCommittedDist::5         3698913      2.53%     80.13% # Number of insts commited each cycle (Count)
system.cpu.commit.numCommittedDist::6         3803713      2.60%     82.73% # Number of insts commited each cycle (Count)
system.cpu.commit.numCommittedDist::7         3035763      2.08%     84.81% # Number of insts commited each cycle (Count)
system.cpu.commit.numCommittedDist::8        22184969     15.19%    100.00% # Number of insts commited each cycle (Count)
system.cpu.commit.numCommittedDist::overflows            0      0.00%    100.00% # Number of insts commited each cycle (Count)
system.cpu.commit.numCommittedDist::min_value            0                       # Number of insts commited each cycle (Count)
system.cpu.commit.numCommittedDist::max_value            8                       # Number of insts commited each cycle (Count)
system.cpu.commit.numCommittedDist::total    146046796                       # Number of insts commited each cycle (Count)
system.cpu.commit.amos                              0                       # Number of atomic instructions committed (Count)
system.cpu.commit.membars                        1334                       # Number of memory barriers committed (Count)
system.cpu.commit.functionCalls               2686695                       # Number of function calls committed. (Count)
system.cpu.commit.committedInstType_0::No_OpClass      7535835      1.98%      1.98% # Class of committed instruction (Count)
system.cpu.commit.committedInstType_0::IntAlu    287855620     75.48%     77.46% # Class of committed instruction (Count)
system.cpu.commit.committedInstType_0::IntMult       250901      0.07%     77.52% # Class of committed instruction (Count)
system.cpu.commit.committedInstType_0::IntDiv        39599      0.01%     77.54% # Class of committed instruction (Count)
system.cpu.commit.committedInstType_0::FloatAdd       257826      0.07%     77.60% # Class of committed instruction (Count)
system.cpu.commit.committedInstType_0::FloatCmp            0      0.00%     77.60% # Class of committed instruction (Count)
system.cpu.commit.committedInstType_0::FloatCvt         1312      0.00%     77.60% # Class of committed instruction (Count)
system.cpu.commit.committedInstType_0::FloatMult            0      0.00%     77.60% # Class of committed instruction (Count)
system.cpu.commit.committedInstType_0::FloatMultAcc            0      0.00%     77.60% # Class of committed instruction (Count)
system.cpu.commit.committedInstType_0::FloatDiv            0      0.00%     77.60% # Class of committed instruction (Count)
system.cpu.commit.committedInstType_0::FloatMisc            0      0.00%     77.60% # Class of committed instruction (Count)
system.cpu.commit.committedInstType_0::FloatSqrt            0      0.00%     77.60% # Class of committed instruction (Count)
system.cpu.commit.committedInstType_0::SimdAdd         6606      0.00%     77.61% # Class of committed instruction (Count)
system.cpu.commit.committedInstType_0::SimdAddAcc            0      0.00%     77.61% # Class of committed instruction (Count)
system.cpu.commit.committedInstType_0::SimdAlu       848567      0.22%     77.83% # Class of committed instruction (Count)
system.cpu.commit.committedInstType_0::SimdCmp            6      0.00%     77.83% # Class of committed instruction (Count)
system.cpu.commit.committedInstType_0::SimdCvt       180780      0.05%     77.87% # Class of committed instruction (Count)
system.cpu.commit.committedInstType_0::SimdMisc       264143      0.07%     77.94% # Class of committed instruction (Count)
system.cpu.commit.committedInstType_0::SimdMult            0      0.00%     77.94% # Class of committed instruction (Count)
system.cpu.commit.committedInstType_0::SimdMultAcc            0      0.00%     77.94% # Class of committed instruction (Count)
system.cpu.commit.committedInstType_0::SimdMatMultAcc            0      0.00%     77.94% # Class of committed instruction (Count)
system.cpu.commit.committedInstType_0::SimdShift         1828      0.00%     77.94% # Class of committed instruction (Count)
system.cpu.commit.committedInstType_0::SimdShiftAcc            0      0.00%     77.94% # Class of committed instruction (Count)
system.cpu.commit.committedInstType_0::SimdDiv            0      0.00%     77.94% # Class of committed instruction (Count)
system.cpu.commit.committedInstType_0::SimdSqrt            0      0.00%     77.94% # Class of committed instruction (Count)
system.cpu.commit.committedInstType_0::SimdFloatAdd        83546      0.02%     77.97% # Class of committed instruction (Count)
system.cpu.commit.committedInstType_0::SimdFloatAlu            0      0.00%     77.97% # Class of committed instruction (Count)
system.cpu.commit.committedInstType_0::SimdFloatCmp            0      0.00%     77.97% # Class of committed instruction (Count)
system.cpu.commit.committedInstType_0::SimdFloatCvt       167092      0.04%     78.01% # Class of committed instruction (Count)
system.cpu.commit.committedInstType_0::SimdFloatDiv        83546      0.02%     78.03% # Class of committed instruction (Count)
system.cpu.commit.committedInstType_0::SimdFloatMisc            0      0.00%     78.03% # Class of committed instruction (Count)
system.cpu.commit.committedInstType_0::SimdFloatMult            0      0.00%     78.03% # Class of committed instruction (Count)
system.cpu.commit.committedInstType_0::SimdFloatMultAcc            0      0.00%     78.03% # Class of committed instruction (Count)
system.cpu.commit.committedInstType_0::SimdFloatMatMultAcc            0      0.00%     78.03% # Class of committed instruction (Count)
system.cpu.commit.committedInstType_0::SimdFloatSqrt            0      0.00%     78.03% # Class of committed instruction (Count)
system.cpu.commit.committedInstType_0::SimdReduceAdd            0      0.00%     78.03% # Class of committed instruction (Count)
system.cpu.commit.committedInstType_0::SimdReduceAlu            0      0.00%     78.03% # Class of committed instruction (Count)
system.cpu.commit.committedInstType_0::SimdReduceCmp            0      0.00%     78.03% # Class of committed instruction (Count)
system.cpu.commit.committedInstType_0::SimdFloatReduceAdd            0      0.00%     78.03% # Class of committed instruction (Count)
system.cpu.commit.committedInstType_0::SimdFloatReduceCmp            0      0.00%     78.03% # Class of committed instruction (Count)
system.cpu.commit.committedInstType_0::SimdAes            0      0.00%     78.03% # Class of committed instruction (Count)
system.cpu.commit.committedInstType_0::SimdAesMix            0      0.00%     78.03% # Class of committed instruction (Count)
system.cpu.commit.committedInstType_0::SimdSha1Hash            0      0.00%     78.03% # Class of committed instruction (Count)
system.cpu.commit.committedInstType_0::SimdSha1Hash2            0      0.00%     78.03% # Class of committed instruction (Count)
system.cpu.commit.committedInstType_0::SimdSha256Hash            0      0.00%     78.03% # Class of committed instruction (Count)
system.cpu.commit.committedInstType_0::SimdSha256Hash2            0      0.00%     78.03% # Class of committed instruction (Count)
system.cpu.commit.committedInstType_0::SimdShaSigma2            0      0.00%     78.03% # Class of committed instruction (Count)
system.cpu.commit.committedInstType_0::SimdShaSigma3            0      0.00%     78.03% # Class of committed instruction (Count)
system.cpu.commit.committedInstType_0::SimdPredAlu            0      0.00%     78.03% # Class of committed instruction (Count)
system.cpu.commit.committedInstType_0::Matrix            0      0.00%     78.03% # Class of committed instruction (Count)
system.cpu.commit.committedInstType_0::MatrixMov            0      0.00%     78.03% # Class of committed instruction (Count)
system.cpu.commit.committedInstType_0::MatrixOP            0      0.00%     78.03% # Class of committed instruction (Count)
system.cpu.commit.committedInstType_0::MemRead     50671380     13.29%     91.32% # Class of committed instruction (Count)
system.cpu.commit.committedInstType_0::MemWrite     32485461      8.52%     99.84% # Class of committed instruction (Count)
system.cpu.commit.committedInstType_0::FloatMemRead       518777      0.14%     99.97% # Class of committed instruction (Count)
system.cpu.commit.committedInstType_0::FloatMemWrite        98272      0.03%    100.00% # Class of committed instruction (Count)
system.cpu.commit.committedInstType_0::IprAccess            0      0.00%    100.00% # Class of committed instruction (Count)
system.cpu.commit.committedInstType_0::InstPrefetch            0      0.00%    100.00% # Class of committed instruction (Count)
system.cpu.commit.committedInstType_0::SimdUnitStrideLoad            0      0.00%    100.00% # Class of committed instruction (Count)
system.cpu.commit.committedInstType_0::SimdUnitStrideStore            0      0.00%    100.00% # Class of committed instruction (Count)
system.cpu.commit.committedInstType_0::SimdUnitStrideMaskLoad            0      0.00%    100.00% # Class of committed instruction (Count)
system.cpu.commit.committedInstType_0::SimdUnitStrideMaskStore            0      0.00%    100.00% # Class of committed instruction (Count)
system.cpu.commit.committedInstType_0::SimdStridedLoad            0      0.00%    100.00% # Class of committed instruction (Count)
system.cpu.commit.committedInstType_0::SimdStridedStore            0      0.00%    100.00% # Class of committed instruction (Count)
system.cpu.commit.committedInstType_0::SimdIndexedLoad            0      0.00%    100.00% # Class of committed instruction (Count)
system.cpu.commit.committedInstType_0::SimdIndexedStore            0      0.00%    100.00% # Class of committed instruction (Count)
system.cpu.commit.committedInstType_0::SimdWholeRegisterLoad            0      0.00%    100.00% # Class of committed instruction (Count)
system.cpu.commit.committedInstType_0::SimdWholeRegisterStore            0      0.00%    100.00% # Class of committed instruction (Count)
system.cpu.commit.committedInstType_0::SimdUnitStrideFaultOnlyFirstLoad            0      0.00%    100.00% # Class of committed instruction (Count)
system.cpu.commit.committedInstType_0::SimdUnitStrideSegmentedLoad            0      0.00%    100.00% # Class of committed instruction (Count)
system.cpu.commit.committedInstType_0::SimdUnitStrideSegmentedStore            0      0.00%    100.00% # Class of committed instruction (Count)
system.cpu.commit.committedInstType_0::SimdExt            0      0.00%    100.00% # Class of committed instruction (Count)
system.cpu.commit.committedInstType_0::SimdFloatExt            0      0.00%    100.00% # Class of committed instruction (Count)
system.cpu.commit.committedInstType_0::SimdConfig            0      0.00%    100.00% # Class of committed instruction (Count)
system.cpu.commit.committedInstType_0::total    381351097                       # Class of committed instruction (Count)
system.cpu.commit.commitEligibleSamples      22184969                       # number cycles where commit BW limit reached (Cycle)
system.cpu.commitStats0.numInsts            222556215                       # Number of instructions committed (thread level) (Count)
system.cpu.commitStats0.numOps              381351097                       # Number of ops (including micro ops) committed (thread level) (Count)
system.cpu.commitStats0.numInstsNotNOP      222556215                       # Number of instructions committed excluding NOPs or prefetches (Count)
system.cpu.commitStats0.numOpsNotNOP        381351097                       # Number of Ops (including micro ops) Simulated (Count)
system.cpu.commitStats0.cpi                  0.681299                       # CPI: cycles per instruction (thread level) ((Cycle/Count))
system.cpu.commitStats0.ipc                  1.467783                       # IPC: instructions per cycle (thread level) ((Count/Cycle))
system.cpu.commitStats0.numMemRefs           83773890                       # Number of memory references committed (Count)
system.cpu.commitStats0.numFpInsts            2516195                       # Number of float instructions (Count)
system.cpu.commitStats0.numIntInsts         372000601                       # Number of integer instructions (Count)
system.cpu.commitStats0.numLoadInsts         51190157                       # Number of load instructions (Count)
system.cpu.commitStats0.numStoreInsts        32583733                       # Number of store instructions (Count)
system.cpu.commitStats0.numVecInsts                 0                       # Number of vector instructions (Count)
system.cpu.commitStats0.committedInstType::No_OpClass      7535835      1.98%      1.98% # Class of committed instruction. (Count)
system.cpu.commitStats0.committedInstType::IntAlu    287855620     75.48%     77.46% # Class of committed instruction. (Count)
system.cpu.commitStats0.committedInstType::IntMult       250901      0.07%     77.52% # Class of committed instruction. (Count)
system.cpu.commitStats0.committedInstType::IntDiv        39599      0.01%     77.54% # Class of committed instruction. (Count)
system.cpu.commitStats0.committedInstType::FloatAdd       257826      0.07%     77.60% # Class of committed instruction. (Count)
system.cpu.commitStats0.committedInstType::FloatCmp            0      0.00%     77.60% # Class of committed instruction. (Count)
system.cpu.commitStats0.committedInstType::FloatCvt         1312      0.00%     77.60% # Class of committed instruction. (Count)
system.cpu.commitStats0.committedInstType::FloatMult            0      0.00%     77.60% # Class of committed instruction. (Count)
system.cpu.commitStats0.committedInstType::FloatMultAcc            0      0.00%     77.60% # Class of committed instruction. (Count)
system.cpu.commitStats0.committedInstType::FloatDiv            0      0.00%     77.60% # Class of committed instruction. (Count)
system.cpu.commitStats0.committedInstType::FloatMisc            0      0.00%     77.60% # Class of committed instruction. (Count)
system.cpu.commitStats0.committedInstType::FloatSqrt            0      0.00%     77.60% # Class of committed instruction. (Count)
system.cpu.commitStats0.committedInstType::SimdAdd         6606      0.00%     77.61% # Class of committed instruction. (Count)
system.cpu.commitStats0.committedInstType::SimdAddAcc            0      0.00%     77.61% # Class of committed instruction. (Count)
system.cpu.commitStats0.committedInstType::SimdAlu       848567      0.22%     77.83% # Class of committed instruction. (Count)
system.cpu.commitStats0.committedInstType::SimdCmp            6      0.00%     77.83% # Class of committed instruction. (Count)
system.cpu.commitStats0.committedInstType::SimdCvt       180780      0.05%     77.87% # Class of committed instruction. (Count)
system.cpu.commitStats0.committedInstType::SimdMisc       264143      0.07%     77.94% # Class of committed instruction. (Count)
system.cpu.commitStats0.committedInstType::SimdMult            0      0.00%     77.94% # Class of committed instruction. (Count)
system.cpu.commitStats0.committedInstType::SimdMultAcc            0      0.00%     77.94% # Class of committed instruction. (Count)
system.cpu.commitStats0.committedInstType::SimdMatMultAcc            0      0.00%     77.94% # Class of committed instruction. (Count)
system.cpu.commitStats0.committedInstType::SimdShift         1828      0.00%     77.94% # Class of committed instruction. (Count)
system.cpu.commitStats0.committedInstType::SimdShiftAcc            0      0.00%     77.94% # Class of committed instruction. (Count)
system.cpu.commitStats0.committedInstType::SimdDiv            0      0.00%     77.94% # Class of committed instruction. (Count)
system.cpu.commitStats0.committedInstType::SimdSqrt            0      0.00%     77.94% # Class of committed instruction. (Count)
system.cpu.commitStats0.committedInstType::SimdFloatAdd        83546      0.02%     77.97% # Class of committed instruction. (Count)
system.cpu.commitStats0.committedInstType::SimdFloatAlu            0      0.00%     77.97% # Class of committed instruction. (Count)
system.cpu.commitStats0.committedInstType::SimdFloatCmp            0      0.00%     77.97% # Class of committed instruction. (Count)
system.cpu.commitStats0.committedInstType::SimdFloatCvt       167092      0.04%     78.01% # Class of committed instruction. (Count)
system.cpu.commitStats0.committedInstType::SimdFloatDiv        83546      0.02%     78.03% # Class of committed instruction. (Count)
system.cpu.commitStats0.committedInstType::SimdFloatMisc            0      0.00%     78.03% # Class of committed instruction. (Count)
system.cpu.commitStats0.committedInstType::SimdFloatMult            0      0.00%     78.03% # Class of committed instruction. (Count)
system.cpu.commitStats0.committedInstType::SimdFloatMultAcc            0      0.00%     78.03% # Class of committed instruction. (Count)
system.cpu.commitStats0.committedInstType::SimdFloatMatMultAcc            0      0.00%     78.03% # Class of committed instruction. (Count)
system.cpu.commitStats0.committedInstType::SimdFloatSqrt            0      0.00%     78.03% # Class of committed instruction. (Count)
system.cpu.commitStats0.committedInstType::SimdReduceAdd            0      0.00%     78.03% # Class of committed instruction. (Count)
system.cpu.commitStats0.committedInstType::SimdReduceAlu            0      0.00%     78.03% # Class of committed instruction. (Count)
system.cpu.commitStats0.committedInstType::SimdReduceCmp            0      0.00%     78.03% # Class of committed instruction. (Count)
system.cpu.commitStats0.committedInstType::SimdFloatReduceAdd            0      0.00%     78.03% # Class of committed instruction. (Count)
system.cpu.commitStats0.committedInstType::SimdFloatReduceCmp            0      0.00%     78.03% # Class of committed instruction. (Count)
system.cpu.commitStats0.committedInstType::SimdAes            0      0.00%     78.03% # Class of committed instruction. (Count)
system.cpu.commitStats0.committedInstType::SimdAesMix            0      0.00%     78.03% # Class of committed instruction. (Count)
system.cpu.commitStats0.committedInstType::SimdSha1Hash            0      0.00%     78.03% # Class of committed instruction. (Count)
system.cpu.commitStats0.committedInstType::SimdSha1Hash2            0      0.00%     78.03% # Class of committed instruction. (Count)
system.cpu.commitStats0.committedInstType::SimdSha256Hash            0      0.00%     78.03% # Class of committed instruction. (Count)
system.cpu.commitStats0.committedInstType::SimdSha256Hash2            0      0.00%     78.03% # Class of committed instruction. (Count)
system.cpu.commitStats0.committedInstType::SimdShaSigma2            0      0.00%     78.03% # Class of committed instruction. (Count)
system.cpu.commitStats0.committedInstType::SimdShaSigma3            0      0.00%     78.03% # Class of committed instruction. (Count)
system.cpu.commitStats0.committedInstType::SimdPredAlu            0      0.00%     78.03% # Class of committed instruction. (Count)
system.cpu.commitStats0.committedInstType::Matrix            0      0.00%     78.03% # Class of committed instruction. (Count)
system.cpu.commitStats0.committedInstType::MatrixMov            0      0.00%     78.03% # Class of committed instruction. (Count)
system.cpu.commitStats0.committedInstType::MatrixOP            0      0.00%     78.03% # Class of committed instruction. (Count)
system.cpu.commitStats0.committedInstType::MemRead     50671380     13.29%     91.32% # Class of committed instruction. (Count)
system.cpu.commitStats0.committedInstType::MemWrite     32485461      8.52%     99.84% # Class of committed instruction. (Count)
system.cpu.commitStats0.committedInstType::FloatMemRead       518777      0.14%     99.97% # Class of committed instruction. (Count)
system.cpu.commitStats0.committedInstType::FloatMemWrite        98272      0.03%    100.00% # Class of committed instruction. (Count)
system.cpu.commitStats0.committedInstType::IprAccess            0      0.00%    100.00% # Class of committed instruction. (Count)
system.cpu.commitStats0.committedInstType::InstPrefetch            0      0.00%    100.00% # Class of committed instruction. (Count)
system.cpu.commitStats0.committedInstType::SimdUnitStrideLoad            0      0.00%    100.00% # Class of committed instruction. (Count)
system.cpu.commitStats0.committedInstType::SimdUnitStrideStore            0      0.00%    100.00% # Class of committed instruction. (Count)
system.cpu.commitStats0.committedInstType::SimdUnitStrideMaskLoad            0      0.00%    100.00% # Class of committed instruction. (Count)
system.cpu.commitStats0.committedInstType::SimdUnitStrideMaskStore            0      0.00%    100.00% # Class of committed instruction. (Count)
system.cpu.commitStats0.committedInstType::SimdStridedLoad            0      0.00%    100.00% # Class of committed instruction. (Count)
system.cpu.commitStats0.committedInstType::SimdStridedStore            0      0.00%    100.00% # Class of committed instruction. (Count)
system.cpu.commitStats0.committedInstType::SimdIndexedLoad            0      0.00%    100.00% # Class of committed instruction. (Count)
system.cpu.commitStats0.committedInstType::SimdIndexedStore            0      0.00%    100.00% # Class of committed instruction. (Count)
system.cpu.commitStats0.committedInstType::SimdWholeRegisterLoad            0      0.00%    100.00% # Class of committed instruction. (Count)
system.cpu.commitStats0.committedInstType::SimdWholeRegisterStore            0      0.00%    100.00% # Class of committed instruction. (Count)
system.cpu.commitStats0.committedInstType::SimdUnitStrideFaultOnlyFirstLoad            0      0.00%    100.00% # Class of committed instruction. (Count)
system.cpu.commitStats0.committedInstType::SimdUnitStrideSegmentedLoad            0      0.00%    100.00% # Class of committed instruction. (Count)
system.cpu.commitStats0.committedInstType::SimdUnitStrideSegmentedStore            0      0.00%    100.00% # Class of committed instruction. (Count)
system.cpu.commitStats0.committedInstType::SimdExt            0      0.00%    100.00% # Class of committed instruction. (Count)
system.cpu.commitStats0.committedInstType::SimdFloatExt            0      0.00%    100.00% # Class of committed instruction. (Count)
system.cpu.commitStats0.committedInstType::SimdConfig            0      0.00%    100.00% # Class of committed instruction. (Count)
system.cpu.commitStats0.committedInstType::total    381351097                       # Class of committed instruction. (Count)
system.cpu.commitStats0.committedControl::IsControl     46856657                       # Class of control type instructions committed (Count)
system.cpu.commitStats0.committedControl::IsDirectControl     42743372                       # Class of control type instructions committed (Count)
system.cpu.commitStats0.committedControl::IsIndirectControl      4112972                       # Class of control type instructions committed (Count)
system.cpu.commitStats0.committedControl::IsCondControl     36700225                       # Class of control type instructions committed (Count)
system.cpu.commitStats0.committedControl::IsUncondControl     10156119                       # Class of control type instructions committed (Count)
system.cpu.commitStats0.committedControl::IsCall      2686695                       # Class of control type instructions committed (Count)
system.cpu.commitStats0.committedControl::IsReturn      2686690                       # Class of control type instructions committed (Count)
system.cpu.decode.idleCycles                 73933654                       # Number of cycles decode is idle (Cycle)
system.cpu.decode.blockedCycles               5716225                       # Number of cycles decode is blocked (Cycle)
system.cpu.decode.runCycles                  68381880                       # Number of cycles decode is running (Cycle)
system.cpu.decode.unblockCycles               2233705                       # Number of cycles decode is unblocking (Cycle)
system.cpu.decode.squashCycles                 856016                       # Number of cycles decode is squashing (Cycle)
system.cpu.decode.branchResolved             28934463                       # Number of times decode resolved a branch (Count)
system.cpu.decode.branchMispred                168737                       # Number of times decode detected a branch misprediction (Count)
system.cpu.decode.decodedInsts              435362864                       # Number of instructions handled by decode (Count)
system.cpu.decode.squashedInsts               1183475                       # Number of squashed instructions handled by decode (Count)
system.cpu.executeStats0.numInsts           409375024                       # Number of executed instructions (Count)
system.cpu.executeStats0.numNop                     0                       # Number of nop insts executed (Count)
system.cpu.executeStats0.numBranches         48905948                       # Number of branches executed (Count)
system.cpu.executeStats0.numLoadInsts        54449830                       # Number of load instructions executed (Count)
system.cpu.executeStats0.numStoreInsts       33387108                       # Number of stores executed (Count)
system.cpu.executeStats0.instRate            2.699875                       # Inst execution rate ((Count/Cycle))
system.cpu.executeStats0.numCCRegReads      204153909                       # Number of times the CC registers were read (Count)
system.cpu.executeStats0.numCCRegWrites     148388409                       # Number of times the CC registers were written (Count)
system.cpu.executeStats0.numFpRegReads        3828041                       # Number of times the floating registers were read (Count)
system.cpu.executeStats0.numFpRegWrites       2752074                       # Number of times the floating registers were written (Count)
system.cpu.executeStats0.numIntRegReads     449998425                       # Number of times the integer registers were read (Count)
system.cpu.executeStats0.numIntRegWrites    279060153                       # Number of times the integer registers were written (Count)
system.cpu.executeStats0.numMemRefs          87836938                       # Number of memory refs (Count)
system.cpu.executeStats0.numMiscRegReads    185825278                       # Number of times the Misc registers were read (Count)
system.cpu.executeStats0.numMiscRegWrites          738                       # Number of times the Misc registers were written (Count)
system.cpu.executeStats0.numVecAluAccesses            0                       # Number of vector alu accesses (Count)
system.cpu.executeStats0.numDiscardedOps            0                       # Number of ops (including micro ops) which were discarded before commit (Count)
system.cpu.fetch.predictedBranches           34241791                       # Number of branches that fetch has predicted taken (Count)
system.cpu.fetch.cycles                      76824229                       # Number of cycles fetch has run and was not squashing or blocked (Cycle)
system.cpu.fetch.squashCycles                 2049390                       # Number of cycles fetch has spent squashing (Cycle)
system.cpu.fetch.miscStallCycles                  242                       # Number of cycles fetch has spent waiting on interrupts, or bad addresses, or out of MSHRs (Cycle)
system.cpu.fetch.pendingTrapStallCycles          2363                       # Number of stall cycles due to pending traps (Cycle)
system.cpu.fetch.cacheLines                  37955622                       # Number of cache lines fetched (Count)
[...]
system.mem_ctrl.dram.bwRead::total          294011265                       # Total read bandwidth from this memory ((Byte/Second))
system.mem_ctrl.dram.bwInstRead::cpu.inst    150813331                       # Instruction read bandwidth from this memory ((Byte/Second))
system.mem_ctrl.dram.bwInstRead::total      150813331                       # Instruction read bandwidth from this memory ((Byte/Second))
system.mem_ctrl.dram.bwWrite::writebacks     41066207                       # Write bandwidth from this memory ((Byte/Second))
system.mem_ctrl.dram.bwWrite::total          41066207                       # Write bandwidth from this memory ((Byte/Second))
system.mem_ctrl.dram.bwTotal::writebacks     41066207                       # Total bandwidth to/from this memory ((Byte/Second))
system.mem_ctrl.dram.bwTotal::cpu.inst      150813331                       # Total bandwidth to/from this memory ((Byte/Second))
system.mem_ctrl.dram.bwTotal::cpu.data      143197934                       # Total bandwidth to/from this memory ((Byte/Second))
system.mem_ctrl.dram.bwTotal::total         335077471                       # Total bandwidth to/from this memory ((Byte/Second))
system.mem_ctrl.dram.readBursts                  3874                       # Number of DRAM read bursts (Count)
system.mem_ctrl.dram.writeBursts                  485                       # Number of DRAM write bursts (Count)
system.mem_ctrl.dram.perBankRdBursts::0           154                       # Per bank write bursts (Count)
system.mem_ctrl.dram.perBankRdBursts::1           270                       # Per bank write bursts (Count)
system.mem_ctrl.dram.perBankRdBursts::2           202                       # Per bank write bursts (Count)
system.mem_ctrl.dram.perBankRdBursts::3           129                       # Per bank write bursts (Count)
system.mem_ctrl.dram.perBankRdBursts::4           165                       # Per bank write bursts (Count)
system.mem_ctrl.dram.perBankRdBursts::5           525                       # Per bank write bursts (Count)
system.mem_ctrl.dram.perBankRdBursts::6           426                       # Per bank write bursts (Count)
system.mem_ctrl.dram.perBankRdBursts::7            97                       # Per bank write bursts (Count)
system.mem_ctrl.dram.perBankRdBursts::8           264                       # Per bank write bursts (Count)
system.mem_ctrl.dram.perBankRdBursts::9           202                       # Per bank write bursts (Count)
system.mem_ctrl.dram.perBankRdBursts::10          194                       # Per bank write bursts (Count)
system.mem_ctrl.dram.perBankRdBursts::11          256                       # Per bank write bursts (Count)
system.mem_ctrl.dram.perBankRdBursts::12          119                       # Per bank write bursts (Count)
system.mem_ctrl.dram.perBankRdBursts::13          442                       # Per bank write bursts (Count)
system.mem_ctrl.dram.perBankRdBursts::14          299                       # Per bank write bursts (Count)
system.mem_ctrl.dram.perBankRdBursts::15          130                       # Per bank write bursts (Count)
system.mem_ctrl.dram.perBankWrBursts::0            17                       # Per bank write bursts (Count)
system.mem_ctrl.dram.perBankWrBursts::1            18                       # Per bank write bursts (Count)
system.mem_ctrl.dram.perBankWrBursts::2            16                       # Per bank write bursts (Count)
system.mem_ctrl.dram.perBankWrBursts::3            10                       # Per bank write bursts (Count)
system.mem_ctrl.dram.perBankWrBursts::4            13                       # Per bank write bursts (Count)
system.mem_ctrl.dram.perBankWrBursts::5           149                       # Per bank write bursts (Count)
system.mem_ctrl.dram.perBankWrBursts::6            14                       # Per bank write bursts (Count)
system.mem_ctrl.dram.perBankWrBursts::7           112                       # Per bank write bursts (Count)
system.mem_ctrl.dram.perBankWrBursts::8            20                       # Per bank write bursts (Count)
system.mem_ctrl.dram.perBankWrBursts::9            20                       # Per bank write bursts (Count)
system.mem_ctrl.dram.perBankWrBursts::10           24                       # Per bank write bursts (Count)
system.mem_ctrl.dram.perBankWrBursts::11           30                       # Per bank write bursts (Count)
system.mem_ctrl.dram.perBankWrBursts::12           25                       # Per bank write bursts (Count)
system.mem_ctrl.dram.perBankWrBursts::13           15                       # Per bank write bursts (Count)
system.mem_ctrl.dram.perBankWrBursts::14            2                       # Per bank write bursts (Count)
system.mem_ctrl.dram.perBankWrBursts::15            0                       # Per bank write bursts (Count)
system.mem_ctrl.dram.totQLat                 53504200                       # Total ticks spent queuing (Tick)
system.mem_ctrl.dram.totBusLat               19370000                       # Total ticks spent in databus transfers (Tick)
system.mem_ctrl.dram.totMemAccLat           126141700                       # Total ticks spent from burst creation until serviced by the DRAM (Tick)
system.mem_ctrl.dram.avgQLat                 13811.10                       # Average queueing delay per DRAM burst ((Tick/Count))
system.mem_ctrl.dram.avgBusLat                5000.00                       # Average bus latency per DRAM burst ((Tick/Count))
system.mem_ctrl.dram.avgMemAccLat            32561.10                       # Average memory access latency per DRAM burst ((Tick/Count))
system.mem_ctrl.dram.readRowHits                 2321                       # Number of row buffer hits during reads (Count)
system.mem_ctrl.dram.writeRowHits                 391                       # Number of row buffer hits during writes (Count)
system.mem_ctrl.dram.readRowHitRate             59.91                       # Row buffer hit rate for reads (Ratio)
system.mem_ctrl.dram.writeRowHitRate            80.62                       # Row buffer hit rate for writes (Ratio)
system.mem_ctrl.dram.bytesPerActivate::samples         1649                       # Bytes accessed per row activation (Byte)
system.mem_ctrl.dram.bytesPerActivate::mean   169.334142                       # Bytes accessed per row activation (Byte)
system.mem_ctrl.dram.bytesPerActivate::gmean   123.002719                       # Bytes accessed per row activation (Byte)
system.mem_ctrl.dram.bytesPerActivate::stdev   171.190593                       # Bytes accessed per row activation (Byte)
system.mem_ctrl.dram.bytesPerActivate::0-127          757     45.91%     45.91% # Bytes accessed per row activation (Byte)
system.mem_ctrl.dram.bytesPerActivate::128-255          552     33.47%     79.38% # Bytes accessed per row activation (Byte)
system.mem_ctrl.dram.bytesPerActivate::256-383          157      9.52%     88.90% # Bytes accessed per row activation (Byte)
system.mem_ctrl.dram.bytesPerActivate::384-511           80      4.85%     93.75% # Bytes accessed per row activation (Byte)
system.mem_ctrl.dram.bytesPerActivate::512-639           47      2.85%     96.60% # Bytes accessed per row activation (Byte)
system.mem_ctrl.dram.bytesPerActivate::640-767           20      1.21%     97.82% # Bytes accessed per row activation (Byte)
system.mem_ctrl.dram.bytesPerActivate::768-895           13      0.79%     98.61% # Bytes accessed per row activation (Byte)
system.mem_ctrl.dram.bytesPerActivate::896-1023            6      0.36%     98.97% # Bytes accessed per row activation (Byte)
system.mem_ctrl.dram.bytesPerActivate::1024-1151           17      1.03%    100.00% # Bytes accessed per row activation (Byte)
system.mem_ctrl.dram.bytesPerActivate::total         1649                       # Bytes accessed per row activation (Byte)
system.mem_ctrl.dram.dramBytesRead             247936                       # Total bytes read (Byte)
system.mem_ctrl.dram.dramBytesWritten           31040                       # Total bytes written (Byte)
system.mem_ctrl.dram.avgRdBW               275.720077                       # Average DRAM read bandwidth in MiBytes/s ((Byte/Second))
system.mem_ctrl.dram.avgWrBW                34.518389                       # Average DRAM write bandwidth in MiBytes/s ((Byte/Second))
system.mem_ctrl.dram.peakBW                  12800.00                       # Theoretical peak bandwidth in MiByte/s ((Byte/Second))
system.mem_ctrl.dram.busUtil                     2.42                       # Data bus utilization in percentage (Ratio)
system.mem_ctrl.dram.busUtilRead                 2.15                       # Data bus utilization in percentage for reads (Ratio)
system.mem_ctrl.dram.busUtilWrite                0.27                       # Data bus utilization in percentage for writes (Ratio)
system.mem_ctrl.dram.pageHitRate                62.22                       # Row buffer hit rate, read and write combined (Ratio)
system.mem_ctrl.dram.power_state.pwrStateResidencyTicks::UNDEFINED    899230852                       # Cumulative time (in ticks) in various power states (Tick)
system.mem_ctrl.dram.rank0.actEnergy          6583080                       # Energy for activate commands per rank (pJ) (Joule)
system.mem_ctrl.dram.rank0.preEnergy          3506580                       # Energy for precharge commands per rank (pJ) (Joule)
system.mem_ctrl.dram.rank0.readEnergy        14058660                       # Energy for read commands per rank (pJ) (Joule)
system.mem_ctrl.dram.rank0.writeEnergy        1821780                       # Energy for write commands per rank (pJ) (Joule)
system.mem_ctrl.dram.rank0.refreshEnergy 71298240.000000                       # Energy for refresh commands per rank (pJ) (Joule)
system.mem_ctrl.dram.rank0.actBackEnergy    327745440                       # Energy for active background per rank (pJ) (Joule)
system.mem_ctrl.dram.rank0.preBackEnergy     69308640                       # Energy for precharge background per rank (pJ) (Joule)
system.mem_ctrl.dram.rank0.actPowerDownEnergy            0                       # Energy for active power-down per rank (pJ) (Joule)
system.mem_ctrl.dram.rank0.prePowerDownEnergy            0                       # Energy for precharge power-down per rank (pJ) (Joule)
system.mem_ctrl.dram.rank0.selfRefreshEnergy            0                       # Energy for self refresh per rank (pJ) (Joule)
system.mem_ctrl.dram.rank0.totalEnergy      494322420                       # Total energy per rank (pJ) (Joule)
system.mem_ctrl.dram.rank0.averagePower    549.716926                       # Core power per rank (mW) (Watt)
system.mem_ctrl.dram.rank0.totalIdleTime            0                       # Total Idle time Per DRAM Rank (Tick)
system.mem_ctrl.dram.rank0.pwrStateTime::IDLE    177198219                       # Time in different power states (Tick)
system.mem_ctrl.dram.rank0.pwrStateTime::REF     30160000                       # Time in different power states (Tick)
system.mem_ctrl.dram.rank0.pwrStateTime::SREF            0                       # Time in different power states (Tick)
system.mem_ctrl.dram.rank0.pwrStateTime::PRE_PDN            0                       # Time in different power states (Tick)
system.mem_ctrl.dram.rank0.pwrStateTime::ACT    691872633                       # Time in different power states (Tick)
system.mem_ctrl.dram.rank0.pwrStateTime::ACT_PDN            0                       # Time in different power states (Tick)
system.mem_ctrl.dram.rank1.actEnergy          5176500                       # Energy for activate commands per rank (pJ) (Joule)
system.mem_ctrl.dram.rank1.preEnergy          2751375                       # Energy for precharge commands per rank (pJ) (Joule)
system.mem_ctrl.dram.rank1.readEnergy        13608840                       # Energy for read commands per rank (pJ) (Joule)
system.mem_ctrl.dram.rank1.writeEnergy         709920                       # Energy for write commands per rank (pJ) (Joule)
system.mem_ctrl.dram.rank1.refreshEnergy 71298240.000000                       # Energy for refresh commands per rank (pJ) (Joule)
system.mem_ctrl.dram.rank1.actBackEnergy    359556570                       # Energy for active background per rank (pJ) (Joule)
system.mem_ctrl.dram.rank1.preBackEnergy     42520320                       # Energy for precharge background per rank (pJ) (Joule)
system.mem_ctrl.dram.rank1.actPowerDownEnergy            0                       # Energy for active power-down per rank (pJ) (Joule)
system.mem_ctrl.dram.rank1.prePowerDownEnergy            0                       # Energy for precharge power-down per rank (pJ) (Joule)
system.mem_ctrl.dram.rank1.selfRefreshEnergy            0                       # Energy for self refresh per rank (pJ) (Joule)
system.mem_ctrl.dram.rank1.totalEnergy      495621765                       # Total energy per rank (pJ) (Joule)
system.mem_ctrl.dram.rank1.averagePower    551.161878                       # Core power per rank (mW) (Watt)
system.mem_ctrl.dram.rank1.totalIdleTime            0                       # Total Idle time Per DRAM Rank (Tick)
system.mem_ctrl.dram.rank1.pwrStateTime::IDLE    107423888                       # Time in different power states (Tick)
system.mem_ctrl.dram.rank1.pwrStateTime::REF     30160000                       # Time in different power states (Tick)
system.mem_ctrl.dram.rank1.pwrStateTime::SREF            0                       # Time in different power states (Tick)
system.mem_ctrl.dram.rank1.pwrStateTime::PRE_PDN            0                       # Time in different power states (Tick)
system.mem_ctrl.dram.rank1.pwrStateTime::ACT    761646964                       # Time in different power states (Tick)
system.mem_ctrl.dram.rank1.pwrStateTime::ACT_PDN            0                       # Time in different power states (Tick)
system.mem_ctrl.power_state.pwrStateResidencyTicks::UNDEFINED    899230852                       # Cumulative time (in ticks) in various power states (Tick)
system.membus.transDist::ReadResp                3873                       # Transaction distribution (Count)
system.membus.transDist::WritebackDirty           577                       # Transaction distribution (Count)
system.membus.transDist::CleanEvict              3554                       # Transaction distribution (Count)
system.membus.transDist::UpgradeReq                 1                       # Transaction distribution (Count)
system.membus.transDist::ReadExReq                259                       # Transaction distribution (Count)
system.membus.transDist::ReadExResp               259                       # Transaction distribution (Count)
system.membus.transDist::ReadSharedReq           3872                       # Transaction distribution (Count)
system.membus.pktCount_system.cpu.l1d.mem_side_port::system.mem_ctrl.port         6037                       # Packet count per connected requestor and responder (Count)
system.membus.pktCount_system.cpu.l1d.mem_side_port::total         6037                       # Packet count per connected requestor and responder (Count)
system.membus.pktCount_system.cpu.l1i.mem_side_port::system.mem_ctrl.port         6357                       # Packet count per connected requestor and responder (Count)
system.membus.pktCount_system.cpu.l1i.mem_side_port::total         6357                       # Packet count per connected requestor and responder (Count)
system.membus.pktCount::total                   12394                       # Packet count per connected requestor and responder (Count)
system.membus.pktSize_system.cpu.l1d.mem_side_port::system.mem_ctrl.port       165696                       # Cumulative packet size per connected requestor and responder (Byte)
system.membus.pktSize_system.cpu.l1d.mem_side_port::total       165696                       # Cumulative packet size per connected requestor and responder (Byte)
system.membus.pktSize_system.cpu.l1i.mem_side_port::system.mem_ctrl.port       135616                       # Cumulative packet size per connected requestor and responder (Byte)
system.membus.pktSize_system.cpu.l1i.mem_side_port::total       135616                       # Cumulative packet size per connected requestor and responder (Byte)
system.membus.pktSize::total                   301312                       # Cumulative packet size per connected requestor and responder (Byte)
system.membus.snoops                                1                       # Total snoops (Count)
system.membus.snoopTraffic                         64                       # Total snoop traffic (Byte)
system.membus.snoopFanout::samples               4132                       # Request fanout histogram (Count)
system.membus.snoopFanout::mean              0.005566                       # Request fanout histogram (Count)
system.membus.snoopFanout::stdev             0.074409                       # Request fanout histogram (Count)
system.membus.snoopFanout::underflows               0      0.00%      0.00% # Request fanout histogram (Count)
system.membus.snoopFanout::0                     4109     99.44%     99.44% # Request fanout histogram (Count)
system.membus.snoopFanout::1                       23      0.56%    100.00% # Request fanout histogram (Count)
system.membus.snoopFanout::2                        0      0.00%    100.00% # Request fanout histogram (Count)
system.membus.snoopFanout::overflows                0      0.00%    100.00% # Request fanout histogram (Count)
system.membus.snoopFanout::min_value                0                       # Request fanout histogram (Count)
system.membus.snoopFanout::max_value                1                       # Request fanout histogram (Count)
system.membus.snoopFanout::total                 4132                       # Request fanout histogram (Count)
system.membus.power_state.pwrStateResidencyTicks::UNDEFINED    899230852                       # Cumulative time (in ticks) in various power states (Tick)
system.membus.reqLayer2.occupancy           140943143                       # Layer occupancy (ticks) (Tick)
system.membus.reqLayer2.utilization               0.2                       # Layer utilization (Ratio)
system.membus.respLayer2.occupancy          136265964                       # Layer occupancy (ticks) (Tick)
system.membus.respLayer2.utilization              0.2                       # Layer utilization (Ratio)
system.membus.respLayer3.occupancy          145134582                       # Layer occupancy (ticks) (Tick)
system.membus.respLayer3.utilization              0.2                       # Layer utilization (Ratio)
system.membus.snoop_filter.totRequests           8263                       # Total number of requests made to the snoop filter. (Count)
system.membus.snoop_filter.hitSingleRequests         4135                       # Number of requests hitting in the snoop filter with a single holder of the requested data. (Count)
system.membus.snoop_filter.hitMultiRequests           19                       # Number of requests hitting in the snoop filter with multiple (>1) holders of the requested data. (Count)
system.membus.snoop_filter.totSnoops                0                       # Total number of snoops made to the snoop filter. (Count)
system.membus.snoop_filter.hitSingleSnoops            0                       # Number of snoops hitting in the snoop filter with a single holder of the requested data. (Count)
system.membus.snoop_filter.hitMultiSnoops            0                       # Number of snoops hitting in the snoop filter with multiple (>1) holders of the requested data. (Count)
system.workload.inst.arm                            0                       # number of arm instructions executed (Count)
system.workload.inst.quiesce                        0                       # number of quiesce instructions executed (Count)

---------- End Simulation Statistics   ----------
