
---------- Begin Simulation Statistics ----------
simSeconds                                   0.021551                       # Number of seconds simulated (Second)
simTicks                                  21551007878                       # Number of ticks simulated (Tick)
finalTick                                 21551007878                       # Number of ticks from beginning of simulation (restored from checkpoints and never reset) (Tick)
simFreq                                  1000000000000                       # The number of ticks per simulated second ((Tick/Second))
hostSeconds                                     89.54                       # Real time elapsed on the host (Second)
hostTickRate                                240684904                       # The number of ticks simulated per host second (ticks/s) ((Tick/Second))
hostMemory                                    8630564                       # Number of bytes of host memory used (Byte)
simInsts                                      2585410                       # Number of instructions simulated (Count)
simOps                                        4556837                       # Number of ops (including micro ops) simulated (Count)
hostInstRate                                    28874                       # Simulator instruction rate (inst/s) ((Count/Second))
hostOpRate                                      50891                       # Simulator op (including micro ops) rate (op/s) ((Count/Second))
system.clk_domain.clock                         13333                       # Clock period in ticks (Tick)
system.clk_domain.voltage_domain.voltage            1                       # Voltage in Volts (Volt)
system.cpu.numCycles                          1616367                       # Number of cpu cycles simulated (Cycle)
system.cpu.cpi                               0.625188                       # CPI: cycles per instruction (core level) ((Cycle/Count))
system.cpu.ipc                               1.599519                       # IPC: instructions per cycle (core level) ((Count/Cycle))
system.cpu.numWorkItemsStarted                      0                       # Number of work items this cpu started (Count)
system.cpu.numWorkItemsCompleted                    0                       # Number of work items this cpu completed (Count)
system.cpu.instsAdded                         5474333                       # Number of instructions added to the IQ (excludes non-spec) (Count)
system.cpu.nonSpecInstsAdded                     2707                       # Number of non-speculative instructions added to the IQ (Count)
system.cpu.instsIssued                        5181515                       # Number of instructions issued (Count)
system.cpu.squashedInstsIssued                   9919                       # Number of squashed instructions issued (Count)
system.cpu.squashedInstsExamined               920169                       # Number of squashed instructions iterated over during squash; mainly for profiling (Count)
system.cpu.squashedOperandsExamined           1607357                       # Number of squashed operands that are examined and possibly removed from graph (Count)
system.cpu.squashedNonSpecRemoved                 199                       # Number of squashed non-spec instructions that were removed (Count)
system.cpu.numIssuedDist::samples             1613304                       # Number of insts issued each cycle (Count)
system.cpu.numIssuedDist::mean               3.211741                       # Number of insts issued each cycle (Count)
system.cpu.numIssuedDist::stdev              2.599469                       # Number of insts issued each cycle (Count)
system.cpu.numIssuedDist::underflows                0      0.00%      0.00% # Number of insts issued each cycle (Count)
system.cpu.numIssuedDist::0                    408331     25.31%     25.31% # Number of insts issued each cycle (Count)
system.cpu.numIssuedDist::1                    121996      7.56%     32.87% # Number of insts issued each cycle (Count)
system.cpu.numIssuedDist::2                    156395      9.69%     42.57% # Number of insts issued each cycle (Count)
system.cpu.numIssuedDist::3                    215124     13.33%     55.90% # Number of insts issued each cycle (Count)
system.cpu.numIssuedDist::4                    153128      9.49%     65.39% # Number of insts issued each cycle (Count)
system.cpu.numIssuedDist::5                    166068     10.29%     75.69% # Number of insts issued each cycle (Count)
system.cpu.numIssuedDist::6                    173410     10.75%     86.43% # Number of insts issued each cycle (Count)
system.cpu.numIssuedDist::7                    132771      8.23%     94.66% # Number of insts issued each cycle (Count)
system.cpu.numIssuedDist::8                     86081      5.34%    100.00% # Number of insts issued each cycle (Count)
system.cpu.numIssuedDist::overflows                 0      0.00%    100.00% # Number of insts issued each cycle (Count)
system.cpu.numIssuedDist::min_value                 0                       # Number of insts issued each cycle (Count)
system.cpu.numIssuedDist::max_value                 8                       # Number of insts issued each cycle (Count)
system.cpu.numIssuedDist::total               1613304                       # Number of insts issued each cycle (Count)
system.cpu.statFuBusy::No_OpClass                   0      0.00%      0.00% # attempts to use FU when none available (Count)
system.cpu.statFuBusy::IntAlu                  124875     82.00%     82.00% # attempts to use FU when none available (Count)
system.cpu.statFuBusy::IntMult                      0      0.00%     82.00% # attempts to use FU when none available (Count)
system.cpu.statFuBusy::IntDiv                       0      0.00%     82.00% # attempts to use FU when none available (Count)
system.cpu.statFuBusy::FloatAdd                     0      0.00%     82.00% # attempts to use FU when none available (Count)
system.cpu.statFuBusy::FloatCmp                     0      0.00%     82.00% # attempts to use FU when none available (Count)
system.cpu.statFuBusy::FloatCvt                     0      0.00%     82.00% # attempts to use FU when none available (Count)
system.cpu.statFuBusy::FloatMult                    0      0.00%     82.00% # attempts to use FU when none available (Count)
system.cpu.statFuBusy::FloatMultAcc                 0      0.00%     82.00% # attempts to use FU when none available (Count)
system.cpu.statFuBusy::FloatDiv                     0      0.00%     82.00% # attempts to use FU when none available (Count)
system.cpu.statFuBusy::FloatMisc                    0      0.00%     82.00% # attempts to use FU when none available (Count)
system.cpu.statFuBusy::FloatSqrt                    0      0.00%     82.00% # attempts to use FU when none available (Count)
system.cpu.statFuBusy::SimdAdd                     15      0.01%     82.01% # attempts to use FU when none available (Count)
system.cpu.statFuBusy::SimdAddAcc                   0      0.00%     82.01% # attempts to use FU when none available (Count)
system.cpu.statFuBusy::SimdAlu                    109      0.07%     82.08% # attempts to use FU when none available (Count)
system.cpu.statFuBusy::SimdCmp                      0      0.00%     82.08% # attempts to use FU when none available (Count)
system.cpu.statFuBusy::SimdCvt                    193      0.13%     82.21% # attempts to use FU when none available (Count)
system.cpu.statFuBusy::SimdMisc                    32      0.02%     82.23% # attempts to use FU when none available (Count)
system.cpu.statFuBusy::SimdMult                     0      0.00%     82.23% # attempts to use FU when none available (Count)
system.cpu.statFuBusy::SimdMultAcc                  0      0.00%     82.23% # attempts to use FU when none available (Count)
system.cpu.statFuBusy::SimdMatMultAcc               0      0.00%     82.23% # attempts to use FU when none available (Count)
system.cpu.statFuBusy::SimdShift                   23      0.02%     82.25% # attempts to use FU when none available (Count)
system.cpu.statFuBusy::SimdShiftAcc                 0      0.00%     82.25% # attempts to use FU when none available (Count)
system.cpu.statFuBusy::SimdDiv                      0      0.00%     82.25% # attempts to use FU when none available (Count)
system.cpu.statFuBusy::SimdSqrt                     0      0.00%     82.25% # attempts to use FU when none available (Count)
system.cpu.statFuBusy::SimdFloatAdd                 0      0.00%     82.25% # attempts to use FU when none available (Count)
system.cpu.statFuBusy::SimdFloatAlu                 0      0.00%     82.25% # attempts to use FU when none available (Count)
system.cpu.statFuBusy::SimdFloatCmp                 0      0.00%     82.25% # attempts to use FU when none available (Count)
system.cpu.statFuBusy::SimdFloatCvt                 0      0.00%     82.25% # attempts to use FU when none available (Count)
system.cpu.statFuBusy::SimdFloatDiv                 0      0.00%     82.25% # attempts to use FU when none available (Count)
system.cpu.statFuBusy::SimdFloatMisc                0      0.00%     82.25% # attempts to use FU when none available (Count)
system.cpu.statFuBusy::SimdFloatMult                0      0.00%     82.25% # attempts to use FU when none available (Count)
system.cpu.statFuBusy::SimdFloatMultAcc             0      0.00%     82.25% # attempts to use FU when none available (Count)
system.cpu.statFuBusy::SimdFloatMatMultAcc            0      0.00%     82.25% # attempts to use FU when none available (Count)
system.cpu.statFuBusy::SimdFloatSqrt                0      0.00%     82.25% # attempts to use FU when none available (Count)
system.cpu.statFuBusy::SimdReduceAdd                0      0.00%     82.25% # attempts to use FU when none available (Count)
system.cpu.statFuBusy::SimdReduceAlu                0      0.00%     82.25% # attempts to use FU when none available (Count)
system.cpu.statFuBusy::SimdReduceCmp                0      0.00%     82.25% # attempts to use FU when none available (Count)
system.cpu.statFuBusy::SimdFloatReduceAdd            0      0.00%     82.25% # attempts to use FU when none available (Count)
system.cpu.statFuBusy::SimdFloatReduceCmp            0      0.00%     82.25% # attempts to use FU when none available (Count)
system.cpu.statFuBusy::SimdAes                      0      0.00%     82.25% # attempts to use FU when none available (Count)
system.cpu.statFuBusy::SimdAesMix                   0      0.00%     82.25% # attempts to use FU when none available (Count)
system.cpu.statFuBusy::SimdSha1Hash                 0      0.00%     82.25% # attempts to use FU when none available (Count)
system.cpu.statFuBusy::SimdSha1Hash2                0      0.00%     82.25% # attempts to use FU when none available (Count)
system.cpu.statFuBusy::SimdSha256Hash               0      0.00%     82.25% # attempts to use FU when none available (Count)
system.cpu.statFuBusy::SimdSha256Hash2              0      0.00%     82.25% # attempts to use FU when none available (Count)
system.cpu.statFuBusy::SimdShaSigma2                0      0.00%     82.25% # attempts to use FU when none available (Count)
system.cpu.statFuBusy::SimdShaSigma3                0      0.00%     82.25% # attempts to use FU when none available (Count)
system.cpu.statFuBusy::SimdPredAlu                  0      0.00%     82.25% # attempts to use FU when none available (Count)
system.cpu.statFuBusy::Matrix                       0      0.00%     82.25% # attempts to use FU when none available (Count)
system.cpu.statFuBusy::MatrixMov                    0      0.00%     82.25% # attempts to use FU when none available (Count)
system.cpu.statFuBusy::MatrixOP                     0      0.00%     82.25% # attempts to use FU when none available (Count)
system.cpu.statFuBusy::MemRead                  14488      9.51%     91.76% # attempts to use FU when none available (Count)
system.cpu.statFuBusy::MemWrite                 11193      7.35%     99.11% # attempts to use FU when none available (Count)
system.cpu.statFuBusy::FloatMemRead               901      0.59%     99.70% # attempts to use FU when none available (Count)
system.cpu.statFuBusy::FloatMemWrite              451      0.30%    100.00% # attempts to use FU when none available (Count)
system.cpu.statFuBusy::IprAccess                    0      0.00%    100.00% # attempts to use FU when none available (Count)
system.cpu.statFuBusy::InstPrefetch                 0      0.00%    100.00% # attempts to use FU when none available (Count)
system.cpu.statFuBusy::SimdUnitStrideLoad            0      0.00%    100.00% # attempts to use FU when none available (Count)
system.cpu.statFuBusy::SimdUnitStrideStore            0      0.00%    100.00% # attempts to use FU when none available (Count)
system.cpu.statFuBusy::SimdUnitStrideMaskLoad            0      0.00%    100.00% # attempts to use FU when none available (Count)
system.cpu.statFuBusy::SimdUnitStrideMaskStore            0      0.00%    100.00% # attempts to use FU when none available (Count)
system.cpu.statFuBusy::SimdStridedLoad              0      0.00%    100.00% # attempts to use FU when none available (Count)
system.cpu.statFuBusy::SimdStridedStore             0      0.00%    100.00% # attempts to use FU when none available (Count)
system.cpu.statFuBusy::SimdIndexedLoad              0      0.00%    100.00% # attempts to use FU when none available (Count)
system.cpu.statFuBusy::SimdIndexedStore             0      0.00%    100.00% # attempts to use FU when none available (Count)
system.cpu.statFuBusy::SimdWholeRegisterLoad            0      0.00%    100.00% # attempts to use FU when none available (Count)
system.cpu.statFuBusy::SimdWholeRegisterStore            0      0.00%    100.00% # attempts to use FU when none available (Count)
system.cpu.statFuBusy::SimdUnitStrideFaultOnlyFirstLoad            0      0.00%    100.00% # attempts to use FU when none available (Count)
system.cpu.statFuBusy::SimdUnitStrideSegmentedLoad            0      0.00%    100.00% # attempts to use FU when none available (Count)
system.cpu.statFuBusy::SimdUnitStrideSegmentedStore            0      0.00%    100.00% # attempts to use FU when none available (Count)
system.cpu.statFuBusy::SimdExt                      0      0.00%    100.00% # attempts to use FU when none available (Count)
system.cpu.statFuBusy::SimdFloatExt                 0      0.00%    100.00% # attempts to use FU when none available (Count)
system.cpu.statFuBusy::SimdConfig                   0      0.00%    100.00% # attempts to use FU when none available (Count)
system.cpu.statIssuedInstType_0::No_OpClass        29281      0.57%      0.57% # Number of instructions issued per FU type, per thread (Count)
system.cpu.statIssuedInstType_0::IntAlu       4058985     78.34%     78.90% # Number of instructions issued per FU type, per thread (Count)
system.cpu.statIssuedInstType_0::IntMult          157      0.00%     78.90% # Number of instructions issued per FU type, per thread (Count)
system.cpu.statIssuedInstType_0::IntDiv         43135      0.83%     79.74% # Number of instructions issued per FU type, per thread (Count)
system.cpu.statIssuedInstType_0::FloatAdd         9056      0.17%     79.91% # Number of instructions issued per FU type, per thread (Count)
system.cpu.statIssuedInstType_0::FloatCmp            0      0.00%     79.91% # Number of instructions issued per FU type, per thread (Count)
system.cpu.statIssuedInstType_0::FloatCvt         1802      0.03%     79.95% # Number of instructions issued per FU type, per thread (Count)
system.cpu.statIssuedInstType_0::FloatMult            0      0.00%     79.95% # Number of instructions issued per FU type, per thread (Count)
system.cpu.statIssuedInstType_0::FloatMultAcc            0      0.00%     79.95% # Number of instructions issued per FU type, per thread (Count)
system.cpu.statIssuedInstType_0::FloatDiv            0      0.00%     79.95% # Number of instructions issued per FU type, per thread (Count)
system.cpu.statIssuedInstType_0::FloatMisc            0      0.00%     79.95% # Number of instructions issued per FU type, per thread (Count)
system.cpu.statIssuedInstType_0::FloatSqrt            0      0.00%     79.95% # Number of instructions issued per FU type, per thread (Count)
system.cpu.statIssuedInstType_0::SimdAdd         7620      0.15%     80.09% # Number of instructions issued per FU type, per thread (Count)
system.cpu.statIssuedInstType_0::SimdAddAcc            0      0.00%     80.09% # Number of instructions issued per FU type, per thread (Count)
system.cpu.statIssuedInstType_0::SimdAlu        17497      0.34%     80.43% # Number of instructions issued per FU type, per thread (Count)
system.cpu.statIssuedInstType_0::SimdCmp            6      0.00%     80.43% # Number of instructions issued per FU type, per thread (Count)
system.cpu.statIssuedInstType_0::SimdCvt        16146      0.31%     80.74% # Number of instructions issued per FU type, per thread (Count)
system.cpu.statIssuedInstType_0::SimdMisc        16036      0.31%     81.05% # Number of instructions issued per FU type, per thread (Count)
system.cpu.statIssuedInstType_0::SimdMult            0      0.00%     81.05% # Number of instructions issued per FU type, per thread (Count)
system.cpu.statIssuedInstType_0::SimdMultAcc            0      0.00%     81.05% # Number of instructions issued per FU type, per thread (Count)
system.cpu.statIssuedInstType_0::SimdMatMultAcc            0      0.00%     81.05% # Number of instructions issued per FU type, per thread (Count)
system.cpu.statIssuedInstType_0::SimdShift         3268      0.06%     81.12% # Number of instructions issued per FU type, per thread (Count)
system.cpu.statIssuedInstType_0::SimdShiftAcc            0      0.00%     81.12% # Number of instructions issued per FU type, per thread (Count)
system.cpu.statIssuedInstType_0::SimdDiv            0      0.00%     81.12% # Number of instructions issued per FU type, per thread (Count)
system.cpu.statIssuedInstType_0::SimdSqrt            0      0.00%     81.12% # Number of instructions issued per FU type, per thread (Count)
system.cpu.statIssuedInstType_0::SimdFloatAdd            1      0.00%     81.12% # Number of instructions issued per FU type, per thread (Count)
system.cpu.statIssuedInstType_0::SimdFloatAlu            0      0.00%     81.12% # Number of instructions issued per FU type, per thread (Count)
system.cpu.statIssuedInstType_0::SimdFloatCmp            0      0.00%     81.12% # Number of instructions issued per FU type, per thread (Count)
system.cpu.statIssuedInstType_0::SimdFloatCvt            4      0.00%     81.12% # Number of instructions issued per FU type, per thread (Count)
system.cpu.statIssuedInstType_0::SimdFloatDiv            1      0.00%     81.12% # Number of instructions issued per FU type, per thread (Count)
system.cpu.statIssuedInstType_0::SimdFloatMisc            0      0.00%     81.12% # Number of instructions issued per FU type, per thread (Count)
system.cpu.statIssuedInstType_0::SimdFloatMult            0      0.00%     81.12% # Number of instructions issued per FU type, per thread (Count)
system.cpu.statIssuedInstType_0::SimdFloatMultAcc            0      0.00%     81.12% # Number of instructions issued per FU type, per thread (Count)
system.cpu.statIssuedInstType_0::SimdFloatMatMultAcc            0      0.00%     81.12% # Number of instructions issued per FU type, per thread (Count)
system.cpu.statIssuedInstType_0::SimdFloatSqrt            0      0.00%     81.12% # Number of instructions issued per FU type, per thread (Count)
system.cpu.statIssuedInstType_0::SimdReduceAdd            0      0.00%     81.12% # Number of instructions issued per FU type, per thread (Count)
system.cpu.statIssuedInstType_0::SimdReduceAlu            0      0.00%     81.12% # Number of instructions issued per FU type, per thread (Count)
system.cpu.statIssuedInstType_0::SimdReduceCmp            0      0.00%     81.12% # Number of instructions issued per FU type, per thread (Count)
system.cpu.statIssuedInstType_0::SimdFloatReduceAdd            0      0.00%     81.12% # Number of instructions issued per FU type, per thread (Count)
system.cpu.statIssuedInstType_0::SimdFloatReduceCmp            0      0.00%     81.12% # Number of instructions issued per FU type, per thread (Count)
system.cpu.statIssuedInstType_0::SimdAes            0      0.00%     81.12% # Number of instructions issued per FU type, per thread (Count)
system.cpu.statIssuedInstType_0::SimdAesMix            0      0.00%     81.12% # Number of instructions issued per FU type, per thread (Count)
system.cpu.statIssuedInstType_0::SimdSha1Hash            0      0.00%     81.12% # Number of instructions issued per FU type, per thread (Count)
system.cpu.statIssuedInstType_0::SimdSha1Hash2            0      0.00%     81.12% # Number of instructions issued per FU type, per thread (Count)
system.cpu.statIssuedInstType_0::SimdSha256Hash            0      0.00%     81.12% # Number of instructions issued per FU type, per thread (Count)
system.cpu.statIssuedInstType_0::SimdSha256Hash2            0      0.00%     81.12% # Number of instructions issued per FU type, per thread (Count)
system.cpu.statIssuedInstType_0::SimdShaSigma2            0      0.00%     81.12% # Number of instructions issued per FU type, per thread (Count)
system.cpu.statIssuedInstType_0::SimdShaSigma3            0      0.00%     81.12% # Number of instructions issued per FU type, per thread (Count)
system.cpu.statIssuedInstType_0::SimdPredAlu            0      0.00%     81.12% # Number of instructions issued per FU type, per thread (Count)
system.cpu.statIssuedInstType_0::Matrix             0      0.00%     81.12% # Number of instructions issued per FU type, per thread (Count)
system.cpu.statIssuedInstType_0::MatrixMov            0      0.00%     81.12% # Number of instructions issued per FU type, per thread (Count)
system.cpu.statIssuedInstType_0::MatrixOP            0      0.00%     81.12% # Number of instructions issued per FU type, per thread (Count)
system.cpu.statIssuedInstType_0::MemRead       662261     12.78%     93.90% # Number of instructions issued per FU type, per thread (Count)
system.cpu.statIssuedInstType_0::MemWrite       270850      5.23%     99.12% # Number of instructions issued per FU type, per thread (Count)
system.cpu.statIssuedInstType_0::FloatMemRead        27176      0.52%     99.65% # Number of instructions issued per FU type, per thread (Count)
system.cpu.statIssuedInstType_0::FloatMemWrite        18233      0.35%    100.00% # Number of instructions issued per FU type, per thread (Count)
system.cpu.statIssuedInstType_0::IprAccess            0      0.00%    100.00% # Number of instructions issued per FU type, per thread (Count)
system.cpu.statIssuedInstType_0::InstPrefetch            0      0.00%    100.00% # Number of instructions issued per FU type, per thread (Count)
system.cpu.statIssuedInstType_0::SimdUnitStrideLoad            0      0.00%    100.00% # Number of instructions issued per FU type, per thread (Count)
system.cpu.statIssuedInstType_0::SimdUnitStrideStore            0      0.00%    100.00% # Number of instructions issued per FU type, per thread (Count)
system.cpu.statIssuedInstType_0::SimdUnitStrideMaskLoad            0      0.00%    100.00% # Number of instructions issued per FU type, per thread (Count)
system.cpu.statIssuedInstType_0::SimdUnitStrideMaskStore            0      0.00%    100.00% # Number of instructions issued per FU type, per thread (Count)
system.cpu.statIssuedInstType_0::SimdStridedLoad            0      0.00%    100.00% # Number of instructions issued per FU type, per thread (Count)
system.cpu.statIssuedInstType_0::SimdStridedStore            0      0.00%    100.00% # Number of instructions issued per FU type, per thread (Count)
system.cpu.statIssuedInstType_0::SimdIndexedLoad            0      0.00%    100.00% # Number of instructions issued per FU type, per thread (Count)
system.cpu.statIssuedInstType_0::SimdIndexedStore            0      0.00%    100.00% # Number of instructions issued per FU type, per thread (Count)
system.cpu.statIssuedInstType_0::SimdWholeRegisterLoad            0      0.00%    100.00% # Number of instructions issued per FU type, per thread (Count)
system.cpu.statIssuedInstType_0::SimdWholeRegisterStore            0      0.00%    100.00% # Number of instructions issued per FU type, per thread (Count)
system.cpu.statIssuedInstType_0::SimdUnitStrideFaultOnlyFirstLoad            0      0.00%    100.00% # Number of instructions issued per FU type, per thread (Count)
system.cpu.statIssuedInstType_0::SimdUnitStrideSegmentedLoad            0      0.00%    100.00% # Number of instructions issued per FU type, per thread (Count)
system.cpu.statIssuedInstType_0::SimdUnitStrideSegmentedStore            0      0.00%    100.00% # Number of instructions issued per FU type, per thread (Count)
system.cpu.statIssuedInstType_0::SimdExt            0      0.00%    100.00% # Number of instructions issued per FU type, per thread (Count)
system.cpu.statIssuedInstType_0::SimdFloatExt            0      0.00%    100.00% # Number of instructions issued per FU type, per thread (Count)
system.cpu.statIssuedInstType_0::SimdConfig            0      0.00%    100.00% # Number of instructions issued per FU type, per thread (Count)
system.cpu.statIssuedInstType_0::total        5181515                       # Number of instructions issued per FU type, per thread (Count)
system.cpu.issueRate                         3.205655                       # Inst issue rate ((Count/Cycle))
system.cpu.fuBusy                              152280                       # FU busy when requested (Count)
system.cpu.fuBusyRate                        0.029389                       # FU busy rate (busy events/executed inst) ((Count/Count))
system.cpu.intInstQueueReads                 11891855                       # Number of integer instruction queue reads (Count)
system.cpu.intInstQueueWrites                 6212496                       # Number of integer instruction queue writes (Count)
system.cpu.intInstQueueWakeupAccesses         5007104                       # Number of integer instruction queue wakeup accesses (Count)
system.cpu.fpInstQueueReads                    246675                       # Number of floating instruction queue reads (Count)
system.cpu.fpInstQueueWrites                   184865                       # Number of floating instruction queue writes (Count)
system.cpu.fpInstQueueWakeupAccesses           117232                       # Number of floating instruction queue wakeup accesses (Count)
system.cpu.vecInstQueueReads                        0                       # Number of vector instruction queue reads (Count)
system.cpu.vecInstQueueWrites                       0                       # Number of vector instruction queue writes (Count)
system.cpu.vecInstQueueWakeupAccesses               0                       # Number of vector instruction queue wakeup accesses (Count)
system.cpu.intAluAccesses                     5180573                       # Number of integer alu accesses (Count)
system.cpu.fpAluAccesses                       123941                       # Number of floating point alu accesses (Count)
system.cpu.vecAluAccesses                           0                       # Number of vector alu accesses (Count)
system.cpu.numSquashedInsts                     34282                       # Number of squashed instructions skipped in execute (Count)
system.cpu.numSwp                                   0                       # Number of swp insts executed (Count)
system.cpu.timesIdled                             889                       # Number of times that the entire CPU went into an idle state and unscheduled itself (Count)
system.cpu.idleCycles                            3063                       # Total number of cycles that the CPU has spent unscheduled due to idling (Cycle)
system.cpu.MemDepUnit__0.insertedLoads         721268                       # Number of loads inserted to the mem dependence unit. (Count)
system.cpu.MemDepUnit__0.insertedStores        304068                       # Number of stores inserted to the mem dependence unit. (Count)
system.cpu.MemDepUnit__0.conflictingLoads        27648                       # Number of conflicting loads. (Count)
system.cpu.MemDepUnit__0.conflictingStores        15692                       # Number of conflicting stores. (Count)
system.cpu.MemDepUnit__1.insertedLoads              0                       # Number of loads inserted to the mem dependence unit. (Count)
system.cpu.MemDepUnit__1.insertedStores             0                       # Number of stores inserted to the mem dependence unit. (Count)
system.cpu.MemDepUnit__1.conflictingLoads            0                       # Number of conflicting loads. (Count)
system.cpu.MemDepUnit__1.conflictingStores            0                       # Number of conflicting stores. (Count)
system.cpu.MemDepUnit__2.insertedLoads              0                       # Number of loads inserted to the mem dependence unit. (Count)
system.cpu.MemDepUnit__2.insertedStores             0                       # Number of stores inserted to the mem dependence unit. (Count)
system.cpu.MemDepUnit__2.conflictingLoads            0                       # Number of conflicting loads. (Count)
system.cpu.MemDepUnit__2.conflictingStores            0                       # Number of conflicting stores. (Count)
system.cpu.MemDepUnit__3.insertedLoads              0                       # Number of loads inserted to the mem dependence unit. (Count)
system.cpu.MemDepUnit__3.insertedStores             0                       # Number of stores inserted to the mem dependence unit. (Count)
system.cpu.MemDepUnit__3.conflictingLoads            0                       # Number of conflicting loads. (Count)
system.cpu.MemDepUnit__3.conflictingStores            0                       # Number of conflicting stores. (Count)
system.cpu.branchPred.lookups_0::NoBranch         2026      0.34%      0.34% # Number of BP lookups (Count)
system.cpu.branchPred.lookups_0::Return         16650      2.78%      3.12% # Number of BP lookups (Count)
system.cpu.branchPred.lookups_0::CallDirect        21937      3.67%      6.79% # Number of BP lookups (Count)
system.cpu.branchPred.lookups_0::CallIndirect         1457      0.24%      7.03% # Number of BP lookups (Count)
system.cpu.branchPred.lookups_0::DirectCond       517769     86.53%     93.57% # Number of BP lookups (Count)
system.cpu.branchPred.lookups_0::DirectUncond        26551      4.44%     98.00% # Number of BP lookups (Count)
system.cpu.branchPred.lookups_0::IndirectCond            0      0.00%     98.00% # Number of BP lookups (Count)
system.cpu.branchPred.lookups_0::IndirectUncond        11947      2.00%    100.00% # Number of BP lookups (Count)
system.cpu.branchPred.lookups_0::total         598337                       # Number of BP lookups (Count)
system.cpu.branchPred.squashes_0::NoBranch         1793      1.23%      1.23% # Number of branches that got squashed (completely removed) as an earlier branch was mispredicted. (Count)
system.cpu.branchPred.squashes_0::Return         3963      2.71%      3.94% # Number of branches that got squashed (completely removed) as an earlier branch was mispredicted. (Count)
system.cpu.branchPred.squashes_0::CallDirect         9878      6.76%     10.70% # Number of branches that got squashed (completely removed) as an earlier branch was mispredicted. (Count)
system.cpu.branchPred.squashes_0::CallIndirect          824      0.56%     11.27% # Number of branches that got squashed (completely removed) as an earlier branch was mispredicted. (Count)
system.cpu.branchPred.squashes_0::DirectCond       115168     78.84%     90.11% # Number of branches that got squashed (completely removed) as an earlier branch was mispredicted. (Count)
system.cpu.branchPred.squashes_0::DirectUncond         7948      5.44%     95.55% # Number of branches that got squashed (completely removed) as an earlier branch was mispredicted. (Count)
system.cpu.branchPred.squashes_0::IndirectCond            0      0.00%     95.55% # Number of branches that got squashed (completely removed) as an earlier branch was mispredicted. (Count)
system.cpu.branchPred.squashes_0::IndirectUncond         6500      4.45%    100.00% # Number of branches that got squashed (completely removed) as an earlier branch was mispredicted. (Count)
system.cpu.branchPred.squashes_0::total        146074                       # Number of branches that got squashed (completely removed) as an earlier branch was mispredicted. (Count)
system.cpu.branchPred.corrected_0::NoBranch          377      2.05%      2.05% # Number of branches that got corrected but not yet commited. Branches get corrected by decode or after execute. Also a branch misprediction can be detected out-of-order. Therefore, a corrected branch might not end up beeing committed in case an even earlier branch was mispredicted (Count)
system.cpu.branchPred.corrected_0::Return           12      0.07%      2.12% # Number of branches that got corrected but not yet commited. Branches get corrected by decode or after execute. Also a branch misprediction can be detected out-of-order. Therefore, a corrected branch might not end up beeing committed in case an even earlier branch was mispredicted (Count)
system.cpu.branchPred.corrected_0::CallDirect          839      4.57%      6.68% # Number of branches that got corrected but not yet commited. Branches get corrected by decode or after execute. Also a branch misprediction can be detected out-of-order. Therefore, a corrected branch might not end up beeing committed in case an even earlier branch was mispredicted (Count)
system.cpu.branchPred.corrected_0::CallIndirect          264      1.44%      8.12% # Number of branches that got corrected but not yet commited. Branches get corrected by decode or after execute. Also a branch misprediction can be detected out-of-order. Therefore, a corrected branch might not end up beeing committed in case an even earlier branch was mispredicted (Count)
system.cpu.branchPred.corrected_0::DirectCond        14960     81.41%     89.53% # Number of branches that got corrected but not yet commited. Branches get corrected by decode or after execute. Also a branch misprediction can be detected out-of-order. Therefore, a corrected branch might not end up beeing committed in case an even earlier branch was mispredicted (Count)
system.cpu.branchPred.corrected_0::DirectUncond          669      3.64%     93.17% # Number of branches that got corrected but not yet commited. Branches get corrected by decode or after execute. Also a branch misprediction can be detected out-of-order. Therefore, a corrected branch might not end up beeing committed in case an even earlier branch was mispredicted (Count)
system.cpu.branchPred.corrected_0::IndirectCond            0      0.00%     93.17% # Number of branches that got corrected but not yet commited. Branches get corrected by decode or after execute. Also a branch misprediction can be detected out-of-order. Therefore, a corrected branch might not end up beeing committed in case an even earlier branch was mispredicted (Count)
system.cpu.branchPred.corrected_0::IndirectUncond         1255      6.83%    100.00% # Number of branches that got corrected but not yet commited. Branches get corrected by decode or after execute. Also a branch misprediction can be detected out-of-order. Therefore, a corrected branch might not end up beeing committed in case an even earlier branch was mispredicted (Count)
system.cpu.branchPred.corrected_0::total        18376                       # Number of branches that got corrected but not yet commited. Branches get corrected by decode or after execute. Also a branch misprediction can be detected out-of-order. Therefore, a corrected branch might not end up beeing committed in case an even earlier branch was mispredicted (Count)
system.cpu.branchPred.earlyResteers_0::NoBranch            0                       # Number of branches that got redirected after decode. (Count)
system.cpu.branchPred.earlyResteers_0::Return            0                       # Number of branches that got redirected after decode. (Count)
system.cpu.branchPred.earlyResteers_0::CallDirect            0                       # Number of branches that got redirected after decode. (Count)
system.cpu.branchPred.earlyResteers_0::CallIndirect            0                       # Number of branches that got redirected after decode. (Count)
system.cpu.branchPred.earlyResteers_0::DirectCond            0                       # Number of branches that got redirected after decode. (Count)
system.cpu.branchPred.earlyResteers_0::DirectUncond            0                       # Number of branches that got redirected after decode. (Count)
system.cpu.branchPred.earlyResteers_0::IndirectCond            0                       # Number of branches that got redirected after decode. (Count)
system.cpu.branchPred.earlyResteers_0::IndirectUncond            0                       # Number of branches that got redirected after decode. (Count)
system.cpu.branchPred.earlyResteers_0::total            0                       # Number of branches that got redirected after decode. (Count)
system.cpu.branchPred.committed_0::NoBranch          233      0.05%      0.05% # Number of branches finally committed  (Count)
system.cpu.branchPred.committed_0::Return        12685      2.80%      2.86% # Number of branches finally committed  (Count)
system.cpu.branchPred.committed_0::CallDirect        12059      2.67%      5.52% # Number of branches finally committed  (Count)
system.cpu.branchPred.committed_0::CallIndirect          633      0.14%      5.66% # Number of branches finally committed  (Count)
system.cpu.branchPred.committed_0::DirectCond       402598     89.02%     94.68% # Number of branches finally committed  (Count)
system.cpu.branchPred.committed_0::DirectUncond        18602      4.11%     98.80% # Number of branches finally committed  (Count)
system.cpu.branchPred.committed_0::IndirectCond            0      0.00%     98.80% # Number of branches finally committed  (Count)
system.cpu.branchPred.committed_0::IndirectUncond         5447      1.20%    100.00% # Number of branches finally committed  (Count)
system.cpu.branchPred.committed_0::total       452257                       # Number of branches finally committed  (Count)
system.cpu.branchPred.mispredicted_0::NoBranch          233      1.52%      1.52% # Number of committed branches that were mispredicted. (Count)
system.cpu.branchPred.mispredicted_0::Return            0      0.00%      1.52% # Number of committed branches that were mispredicted. (Count)
system.cpu.branchPred.mispredicted_0::CallDirect          512      3.34%      4.86% # Number of committed branches that were mispredicted. (Count)
system.cpu.branchPred.mispredicted_0::CallIndirect          239      1.56%      6.43% # Number of committed branches that were mispredicted. (Count)
system.cpu.branchPred.mispredicted_0::DirectCond        12753     83.28%     89.70% # Number of committed branches that were mispredicted. (Count)
system.cpu.branchPred.mispredicted_0::DirectUncond          387      2.53%     92.23% # Number of committed branches that were mispredicted. (Count)
system.cpu.branchPred.mispredicted_0::IndirectCond            0      0.00%     92.23% # Number of committed branches that were mispredicted. (Count)
system.cpu.branchPred.mispredicted_0::IndirectUncond         1190      7.77%    100.00% # Number of committed branches that were mispredicted. (Count)
system.cpu.branchPred.mispredicted_0::total        15314                       # Number of committed branches that were mispredicted. (Count)
system.cpu.branchPred.targetProvider_0::NoTarget       274822     45.93%     45.93% # The component providing the target for taken branches (Count)
system.cpu.branchPred.targetProvider_0::BTB       301356     50.37%     96.30% # The component providing the target for taken branches (Count)
system.cpu.branchPred.targetProvider_0::RAS        16649      2.78%     99.08% # The component providing the target for taken branches (Count)
system.cpu.branchPred.targetProvider_0::Indirect         5510      0.92%    100.00% # The component providing the target for taken branches (Count)
system.cpu.branchPred.targetProvider_0::total       598337                       # The component providing the target for taken branches (Count)
system.cpu.branchPred.targetWrong_0::NoBranch         9076     55.86%     55.86% # Number of branches where the target was incorrect or not available at prediction time. (Count)
system.cpu.branchPred.targetWrong_0::Return         7025     43.24%     99.10% # Number of branches where the target was incorrect or not available at prediction time. (Count)
system.cpu.branchPred.targetWrong_0::CallDirect           12      0.07%     99.17% # Number of branches where the target was incorrect or not available at prediction time. (Count)
system.cpu.branchPred.targetWrong_0::CallIndirect          135      0.83%    100.00% # Number of branches where the target was incorrect or not available at prediction time. (Count)
system.cpu.branchPred.targetWrong_0::DirectCond            0      0.00%    100.00% # Number of branches where the target was incorrect or not available at prediction time. (Count)
system.cpu.branchPred.targetWrong_0::DirectUncond            0      0.00%    100.00% # Number of branches where the target was incorrect or not available at prediction time. (Count)
system.cpu.branchPred.targetWrong_0::IndirectCond            0      0.00%    100.00% # Number of branches where the target was incorrect or not available at prediction time. (Count)
system.cpu.branchPred.targetWrong_0::IndirectUncond            0      0.00%    100.00% # Number of branches where the target was incorrect or not available at prediction time. (Count)
system.cpu.branchPred.targetWrong_0::total        16248                       # Number of branches where the target was incorrect or not available at prediction time. (Count)
system.cpu.branchPred.condPredicted            519795                       # Number of conditional branches predicted (Count)
system.cpu.branchPred.condPredictedTaken       257792                       # Number of conditional branches predicted as taken (Count)
system.cpu.branchPred.condIncorrect             18376                       # Number of conditional branches incorrect (Count)
system.cpu.branchPred.predTakenBTBMiss           1868                       # Number of branches predicted taken but missed in BTB (Count)
system.cpu.branchPred.NotTakenMispredicted        10672                       # Number branches predicted 'not taken' but turned out to be taken (Count)
system.cpu.branchPred.TakenMispredicted          7704                       # Number branches predicted taken but are actually not taken (Count)
system.cpu.branchPred.BTBLookups               598337                       # Number of BTB lookups (Count)
system.cpu.branchPred.BTBUpdates                 8764                       # Number of BTB updates (Count)
system.cpu.branchPred.BTBHits                  406042                       # Number of BTB hits (Count)
system.cpu.branchPred.BTBHitRatio            0.678618                       # BTB Hit Ratio (Ratio)
system.cpu.branchPred.BTBMispredicted            2774                       # Number BTB mispredictions. No target found or target wrong (Count)
system.cpu.branchPred.indirectLookups           13404                       # Number of indirect predictor lookups. (Count)
system.cpu.branchPred.indirectHits               5510                       # Number of indirect target hits. (Count)
system.cpu.branchPred.indirectMisses             7894                       # Number of indirect misses. (Count)
system.cpu.branchPred.indirectMispredicted            0                       # Number of mispredicted indirect branches. (Count)
system.cpu.branchPred.btb.lookups::NoBranch         2026      0.34%      0.34% # Number of BTB lookups (Count)
system.cpu.branchPred.btb.lookups::Return        16650      2.78%      3.12% # Number of BTB lookups (Count)
system.cpu.branchPred.btb.lookups::CallDirect        21937      3.67%      6.79% # Number of BTB lookups (Count)
system.cpu.branchPred.btb.lookups::CallIndirect         1457      0.24%      7.03% # Number of BTB lookups (Count)
system.cpu.branchPred.btb.lookups::DirectCond       517769     86.53%     93.57% # Number of BTB lookups (Count)
system.cpu.branchPred.btb.lookups::DirectUncond        26551      4.44%     98.00% # Number of BTB lookups (Count)
system.cpu.branchPred.btb.lookups::IndirectCond            0      0.00%     98.00% # Number of BTB lookups (Count)
system.cpu.branchPred.btb.lookups::IndirectUncond        11947      2.00%    100.00% # Number of BTB lookups (Count)
system.cpu.branchPred.btb.lookups::total       598337                       # Number of BTB lookups (Count)
system.cpu.branchPred.btb.misses::NoBranch          400      0.21%      0.21% # Number of BTB misses (Count)
system.cpu.branchPred.btb.misses::Return        16650      8.66%      8.87% # Number of BTB misses (Count)
system.cpu.branchPred.btb.misses::CallDirect         1325      0.69%      9.56% # Number of BTB misses (Count)
system.cpu.branchPred.btb.misses::CallIndirect         1457      0.76%     10.31% # Number of BTB misses (Count)
system.cpu.branchPred.btb.misses::DirectCond       159490     82.94%     93.25% # Number of BTB misses (Count)
system.cpu.branchPred.btb.misses::DirectUncond         1026      0.53%     93.79% # Number of BTB misses (Count)
system.cpu.branchPred.btb.misses::IndirectCond            0      0.00%     93.79% # Number of BTB misses (Count)
system.cpu.branchPred.btb.misses::IndirectUncond        11947      6.21%    100.00% # Number of BTB misses (Count)
system.cpu.branchPred.btb.misses::total        192295                       # Number of BTB misses (Count)
system.cpu.branchPred.btb.updates::NoBranch            0      0.00%      0.00% # Number of BTB updates (Count)
system.cpu.branchPred.btb.updates::Return            0      0.00%      0.00% # Number of BTB updates (Count)
system.cpu.branchPred.btb.updates::CallDirect          839      9.57%      9.57% # Number of BTB updates (Count)
system.cpu.branchPred.btb.updates::CallIndirect            0      0.00%      9.57% # Number of BTB updates (Count)
system.cpu.branchPred.btb.updates::DirectCond         7256     82.79%     92.37% # Number of BTB updates (Count)
system.cpu.branchPred.btb.updates::DirectUncond          669      7.63%    100.00% # Number of BTB updates (Count)
system.cpu.branchPred.btb.updates::IndirectCond            0      0.00%    100.00% # Number of BTB updates (Count)
system.cpu.branchPred.btb.updates::IndirectUncond            0      0.00%    100.00% # Number of BTB updates (Count)
system.cpu.branchPred.btb.updates::total         8764                       # Number of BTB updates (Count)
system.cpu.branchPred.btb.mispredict::NoBranch            0      0.00%      0.00% # Number of BTB mispredictions. No target found or target wrong. (Count)
system.cpu.branchPred.btb.mispredict::Return            0      0.00%      0.00% # Number of BTB mispredictions. No target found or target wrong. (Count)
system.cpu.branchPred.btb.mispredict::CallDirect          839      9.57%      9.57% # Number of BTB mispredictions. No target found or target wrong. (Count)
system.cpu.branchPred.btb.mispredict::CallIndirect            0      0.00%      9.57% # Number of BTB mispredictions. No target found or target wrong. (Count)
system.cpu.branchPred.btb.mispredict::DirectCond         7256     82.79%     92.37% # Number of BTB mispredictions. No target found or target wrong. (Count)
system.cpu.branchPred.btb.mispredict::DirectUncond          669      7.63%    100.00% # Number of BTB mispredictions. No target found or target wrong. (Count)
system.cpu.branchPred.btb.mispredict::IndirectCond            0      0.00%    100.00% # Number of BTB mispredictions. No target found or target wrong. (Count)
system.cpu.branchPred.btb.mispredict::IndirectUncond            0      0.00%    100.00% # Number of BTB mispredictions. No target found or target wrong. (Count)
system.cpu.branchPred.btb.mispredict::total         8764                       # Number of BTB mispredictions. No target found or target wrong. (Count)
system.cpu.branchPred.btb.power_state.pwrStateResidencyTicks::UNDEFINED  21551007878                       # Cumulative time (in ticks) in various power states (Tick)
system.cpu.branchPred.indirectBranchPred.lookups        13404                       # Number of lookups (Count)
system.cpu.branchPred.indirectBranchPred.hits         5510                       # Number of hits of a tag (Count)
system.cpu.branchPred.indirectBranchPred.misses         7894                       # Number of misses (Count)
system.cpu.branchPred.indirectBranchPred.targetRecords         1519                       # Number of targets that where recorded/installed in the cache (Count)
system.cpu.branchPred.indirectBranchPred.indirectRecords        14923                       # Number of indirect branches/calls recorded in the indirect hist (Count)
system.cpu.branchPred.indirectBranchPred.speculativeOverflows            1                       # Number of times more than the allowed capacity for speculative branches/calls where in flight and destroy the path history (Count)
system.cpu.branchPred.ras.pushes                27357                       # Number of times a PC was pushed onto the RAS (Count)
system.cpu.branchPred.ras.pops                  27352                       # Number of times a PC was poped from the RAS (Count)
system.cpu.branchPred.ras.squashes              14665                       # Number of times the stack operation was squashed due to wrong speculation. (Count)
system.cpu.branchPred.ras.used                  12685                       # Number of times the RAS is the provider (Count)
system.cpu.branchPred.ras.correct               12685                       # Number of times the RAS is the provider and the prediction is correct (Count)
system.cpu.branchPred.ras.incorrect                 0                       # Number of times the RAS is the provider and the prediction is wrong (Count)
system.cpu.commit.commitSquashedInsts          908461                       # The number of squashed insts skipped by commit (Count)
system.cpu.commit.commitNonSpecStalls            2508                       # The number of times commit has been forced to stall to communicate backwards (Count)
system.cpu.commit.branchMispredicts             16956                       # The number of times a branch was mispredicted (Count)
system.cpu.commit.numCommittedDist::samples      1480684                       # Number of insts commited each cycle (Count)
system.cpu.commit.numCommittedDist::mean     3.077522                       # Number of insts commited each cycle (Count)
system.cpu.commit.numCommittedDist::stdev     3.213547                       # Number of insts commited each cycle (Count)
system.cpu.commit.numCommittedDist::underflows            0      0.00%      0.00% # Number of insts commited each cycle (Count)
system.cpu.commit.numCommittedDist::0          464978     31.40%     31.40% # Number of insts commited each cycle (Count)
system.cpu.commit.numCommittedDist::1          272675     18.42%     49.82% # Number of insts commited each cycle (Count)
system.cpu.commit.numCommittedDist::2           86569      5.85%     55.66% # Number of insts commited each cycle (Count)
system.cpu.commit.numCommittedDist::3          160109     10.81%     66.48% # Number of insts commited each cycle (Count)
system.cpu.commit.numCommittedDist::4           37680      2.54%     69.02% # Number of insts commited each cycle (Count)
system.cpu.commit.numCommittedDist::5           16357      1.10%     70.13% # Number of insts commited each cycle (Count)
system.cpu.commit.numCommittedDist::6           19843      1.34%     71.47% # Number of insts commited each cycle (Count)
system.cpu.commit.numCommittedDist::7          100650      6.80%     78.27% # Number of insts commited each cycle (Count)
system.cpu.commit.numCommittedDist::8          321823     21.73%    100.00% # Number of insts commited each cycle (Count)
system.cpu.commit.numCommittedDist::overflows            0      0.00%    100.00% # Number of insts commited each cycle (Count)
system.cpu.commit.numCommittedDist::min_value            0                       # Number of insts commited each cycle (Count)
system.cpu.commit.numCommittedDist::max_value            8                       # Number of insts commited each cycle (Count)
system.cpu.commit.numCommittedDist::total      1480684                       # Number of insts commited each cycle (Count)
system.cpu.commit.amos                              0                       # Number of atomic instructions committed (Count)
system.cpu.commit.membars                        1026                       # Number of memory barriers committed (Count)
system.cpu.commit.functionCalls                 12692                       # Number of function calls committed. (Count)
system.cpu.commit.committedInstType_0::No_OpClass        16112      0.35%      0.35% # Class of committed instruction (Count)
system.cpu.commit.committedInstType_0::IntAlu      3606309     79.14%     79.49% # Class of committed instruction (Count)
system.cpu.commit.committedInstType_0::IntMult           94      0.00%     79.50% # Class of committed instruction (Count)
system.cpu.commit.committedInstType_0::IntDiv        39393      0.86%     80.36% # Class of committed instruction (Count)
system.cpu.commit.committedInstType_0::FloatAdd         7308      0.16%     80.52% # Class of committed instruction (Count)
system.cpu.commit.committedInstType_0::FloatCmp            0      0.00%     80.52% # Class of committed instruction (Count)
system.cpu.commit.committedInstType_0::FloatCvt         1712      0.04%     80.56% # Class of committed instruction (Count)
system.cpu.commit.committedInstType_0::FloatMult            0      0.00%     80.56% # Class of committed instruction (Count)
system.cpu.commit.committedInstType_0::FloatMultAcc            0      0.00%     80.56% # Class of committed instruction (Count)
system.cpu.commit.committedInstType_0::FloatDiv            0      0.00%     80.56% # Class of committed instruction (Count)
system.cpu.commit.committedInstType_0::FloatMisc            0      0.00%     80.56% # Class of committed instruction (Count)
system.cpu.commit.committedInstType_0::FloatSqrt            0      0.00%     80.56% # Class of committed instruction (Count)
system.cpu.commit.committedInstType_0::SimdAdd         6810      0.15%     80.71% # Class of committed instruction (Count)
system.cpu.commit.committedInstType_0::SimdAddAcc            0      0.00%     80.71% # Class of committed instruction (Count)
system.cpu.commit.committedInstType_0::SimdAlu        13095      0.29%     81.00% # Class of committed instruction (Count)
system.cpu.commit.committedInstType_0::SimdCmp            6      0.00%     81.00% # Class of committed instruction (Count)
system.cpu.commit.committedInstType_0::SimdCvt        13632      0.30%     81.29% # Class of committed instruction (Count)
system.cpu.commit.committedInstType_0::SimdMisc        14726      0.32%     81.62% # Class of committed instruction (Count)
system.cpu.commit.committedInstType_0::SimdMult            0      0.00%     81.62% # Class of committed instruction (Count)
system.cpu.commit.committedInstType_0::SimdMultAcc            0      0.00%     81.62% # Class of committed instruction (Count)
system.cpu.commit.committedInstType_0::SimdMatMultAcc            0      0.00%     81.62% # Class of committed instruction (Count)
system.cpu.commit.committedInstType_0::SimdShift         1562      0.03%     81.65% # Class of committed instruction (Count)
system.cpu.commit.committedInstType_0::SimdShiftAcc            0      0.00%     81.65% # Class of committed instruction (Count)
system.cpu.commit.committedInstType_0::SimdDiv            0      0.00%     81.65% # Class of committed instruction (Count)
system.cpu.commit.committedInstType_0::SimdSqrt            0      0.00%     81.65% # Class of committed instruction (Count)
system.cpu.commit.committedInstType_0::SimdFloatAdd            1      0.00%     81.65% # Class of committed instruction (Count)
system.cpu.commit.committedInstType_0::SimdFloatAlu            0      0.00%     81.65% # Class of committed instruction (Count)
system.cpu.commit.committedInstType_0::SimdFloatCmp            0      0.00%     81.65% # Class of committed instruction (Count)
system.cpu.commit.committedInstType_0::SimdFloatCvt            2      0.00%     81.65% # Class of committed instruction (Count)
system.cpu.commit.committedInstType_0::SimdFloatDiv            1      0.00%     81.65% # Class of committed instruction (Count)
system.cpu.commit.committedInstType_0::SimdFloatMisc            0      0.00%     81.65% # Class of committed instruction (Count)
system.cpu.commit.committedInstType_0::SimdFloatMult            0      0.00%     81.65% # Class of committed instruction (Count)
system.cpu.commit.committedInstType_0::SimdFloatMultAcc            0      0.00%     81.65% # Class of committed instruction (Count)
system.cpu.commit.committedInstType_0::SimdFloatMatMultAcc            0      0.00%     81.65% # Class of committed instruction (Count)
system.cpu.commit.committedInstType_0::SimdFloatSqrt            0      0.00%     81.65% # Class of committed instruction (Count)
system.cpu.commit.committedInstType_0::SimdReduceAdd            0      0.00%     81.65% # Class of committed instruction (Count)
system.cpu.commit.committedInstType_0::SimdReduceAlu            0      0.00%     81.65% # Class of committed instruction (Count)
system.cpu.commit.committedInstType_0::SimdReduceCmp            0      0.00%     81.65% # Class of committed instruction (Count)
system.cpu.commit.committedInstType_0::SimdFloatReduceAdd            0      0.00%     81.65% # Class of committed instruction (Count)
system.cpu.commit.committedInstType_0::SimdFloatReduceCmp            0      0.00%     81.65% # Class of committed instruction (Count)
system.cpu.commit.committedInstType_0::SimdAes            0      0.00%     81.65% # Class of committed instruction (Count)
system.cpu.commit.committedInstType_0::SimdAesMix            0      0.00%     81.65% # Class of committed instruction (Count)
system.cpu.commit.committedInstType_0::SimdSha1Hash            0      0.00%     81.65% # Class of committed instruction (Count)
system.cpu.commit.committedInstType_0::SimdSha1Hash2            0      0.00%     81.65% # Class of committed instruction (Count)
system.cpu.commit.committedInstType_0::SimdSha256Hash            0      0.00%     81.65% # Class of committed instruction (Count)
system.cpu.commit.committedInstType_0::SimdSha256Hash2            0      0.00%     81.65% # Class of committed instruction (Count)
system.cpu.commit.committedInstType_0::SimdShaSigma2            0      0.00%     81.65% # Class of committed instruction (Count)
system.cpu.commit.committedInstType_0::SimdShaSigma3            0      0.00%     81.65% # Class of committed instruction (Count)
system.cpu.commit.committedInstType_0::SimdPredAlu            0      0.00%     81.65% # Class of committed instruction (Count)
system.cpu.commit.committedInstType_0::Matrix            0      0.00%     81.65% # Class of committed instruction (Count)
system.cpu.commit.committedInstType_0::MatrixMov            0      0.00%     81.65% # Class of committed instruction (Count)
system.cpu.commit.committedInstType_0::MatrixOP            0      0.00%     81.65% # Class of committed instruction (Count)
system.cpu.commit.committedInstType_0::MemRead       578829     12.70%     94.35% # Class of committed instruction (Count)
system.cpu.commit.committedInstType_0::MemWrite       221200      4.85%     99.21% # Class of committed instruction (Count)
system.cpu.commit.committedInstType_0::FloatMemRead        18948      0.42%     99.62% # Class of committed instruction (Count)
system.cpu.commit.committedInstType_0::FloatMemWrite        17097      0.38%    100.00% # Class of committed instruction (Count)
system.cpu.commit.committedInstType_0::IprAccess            0      0.00%    100.00% # Class of committed instruction (Count)
system.cpu.commit.committedInstType_0::InstPrefetch            0      0.00%    100.00% # Class of committed instruction (Count)
system.cpu.commit.committedInstType_0::SimdUnitStrideLoad            0      0.00%    100.00% # Class of committed instruction (Count)
system.cpu.commit.committedInstType_0::SimdUnitStrideStore            0      0.00%    100.00% # Class of committed instruction (Count)
system.cpu.commit.committedInstType_0::SimdUnitStrideMaskLoad            0      0.00%    100.00% # Class of committed instruction (Count)
system.cpu.commit.committedInstType_0::SimdUnitStrideMaskStore            0      0.00%    100.00% # Class of committed instruction (Count)
system.cpu.commit.committedInstType_0::SimdStridedLoad            0      0.00%    100.00% # Class of committed instruction (Count)
system.cpu.commit.committedInstType_0::SimdStridedStore            0      0.00%    100.00% # Class of committed instruction (Count)
system.cpu.commit.committedInstType_0::SimdIndexedLoad            0      0.00%    100.00% # Class of committed instruction (Count)
system.cpu.commit.committedInstType_0::SimdIndexedStore            0      0.00%    100.00% # Class of committed instruction (Count)
system.cpu.commit.committedInstType_0::SimdWholeRegisterLoad            0      0.00%    100.00% # Class of committed instruction (Count)
system.cpu.commit.committedInstType_0::SimdWholeRegisterStore            0      0.00%    100.00% # Class of committed instruction (Count)
system.cpu.commit.committedInstType_0::SimdUnitStrideFaultOnlyFirstLoad            0      0.00%    100.00% # Class of committed instruction (Count)
system.cpu.commit.committedInstType_0::SimdUnitStrideSegmentedLoad            0      0.00%    100.00% # Class of committed instruction (Count)
system.cpu.commit.committedInstType_0::SimdUnitStrideSegmentedStore            0      0.00%    100.00% # Class of committed instruction (Count)
system.cpu.commit.committedInstType_0::SimdExt            0      0.00%    100.00% # Class of committed instruction (Count)
system.cpu.commit.committedInstType_0::SimdFloatExt            0      0.00%    100.00% # Class of committed instruction (Count)
system.cpu.commit.committedInstType_0::SimdConfig            0      0.00%    100.00% # Class of committed instruction (Count)
system.cpu.commit.committedInstType_0::total      4556837                       # Class of committed instruction (Count)
system.cpu.commit.commitEligibleSamples        321823                       # number cycles where commit BW limit reached (Cycle)
system.cpu.commitStats0.numInsts              2585410                       # Number of instructions committed (thread level) (Count)
system.cpu.commitStats0.numOps                4556837                       # Number of ops (including micro ops) committed (thread level) (Count)
system.cpu.commitStats0.numInstsNotNOP        2585410                       # Number of instructions committed excluding NOPs or prefetches (Count)
system.cpu.commitStats0.numOpsNotNOP          4556837                       # Number of Ops (including micro ops) Simulated (Count)
system.cpu.commitStats0.cpi                  0.625188                       # CPI: cycles per instruction (thread level) ((Cycle/Count))
system.cpu.commitStats0.ipc                  1.599519                       # IPC: instructions per cycle (thread level) ((Count/Cycle))
system.cpu.commitStats0.numMemRefs             836074                       # Number of memory references committed (Count)
system.cpu.commitStats0.numFpInsts              99859                       # Number of float instructions (Count)
system.cpu.commitStats0.numIntInsts           4479143                       # Number of integer instructions (Count)
system.cpu.commitStats0.numLoadInsts           597777                       # Number of load instructions (Count)
system.cpu.commitStats0.numStoreInsts          238297                       # Number of store instructions (Count)
system.cpu.commitStats0.numVecInsts                 0                       # Number of vector instructions (Count)
system.cpu.commitStats0.committedInstType::No_OpClass        16112      0.35%      0.35% # Class of committed instruction. (Count)
system.cpu.commitStats0.committedInstType::IntAlu      3606309     79.14%     79.49% # Class of committed instruction. (Count)
system.cpu.commitStats0.committedInstType::IntMult           94      0.00%     79.50% # Class of committed instruction. (Count)
system.cpu.commitStats0.committedInstType::IntDiv        39393      0.86%     80.36% # Class of committed instruction. (Count)
system.cpu.commitStats0.committedInstType::FloatAdd         7308      0.16%     80.52% # Class of committed instruction. (Count)
system.cpu.commitStats0.committedInstType::FloatCmp            0      0.00%     80.52% # Class of committed instruction. (Count)
system.cpu.commitStats0.committedInstType::FloatCvt         1712      0.04%     80.56% # Class of committed instruction. (Count)
system.cpu.commitStats0.committedInstType::FloatMult            0      0.00%     80.56% # Class of committed instruction. (Count)
system.cpu.commitStats0.committedInstType::FloatMultAcc            0      0.00%     80.56% # Class of committed instruction. (Count)
system.cpu.commitStats0.committedInstType::FloatDiv            0      0.00%     80.56% # Class of committed instruction. (Count)
system.cpu.commitStats0.committedInstType::FloatMisc            0      0.00%     80.56% # Class of committed instruction. (Count)
system.cpu.commitStats0.committedInstType::FloatSqrt            0      0.00%     80.56% # Class of committed instruction. (Count)
system.cpu.commitStats0.committedInstType::SimdAdd         6810      0.15%     80.71% # Class of committed instruction. (Count)
system.cpu.commitStats0.committedInstType::SimdAddAcc            0      0.00%     80.71% # Class of committed instruction. (Count)
system.cpu.commitStats0.committedInstType::SimdAlu        13095      0.29%     81.00% # Class of committed instruction. (Count)
system.cpu.commitStats0.committedInstType::SimdCmp            6      0.00%     81.00% # Class of committed instruction. (Count)
system.cpu.commitStats0.committedInstType::SimdCvt        13632      0.30%     81.29% # Class of committed instruction. (Count)
system.cpu.commitStats0.committedInstType::SimdMisc        14726      0.32%     81.62% # Class of committed instruction. (Count)
system.cpu.commitStats0.committedInstType::SimdMult            0      0.00%     81.62% # Class of committed instruction. (Count)
system.cpu.commitStats0.committedInstType::SimdMultAcc            0      0.00%     81.62% # Class of committed instruction. (Count)
system.cpu.commitStats0.committedInstType::SimdMatMultAcc            0      0.00%     81.62% # Class of committed instruction. (Count)
system.cpu.commitStats0.committedInstType::SimdShift         1562      0.03%     81.65% # Class of committed instruction. (Count)
system.cpu.commitStats0.committedInstType::SimdShiftAcc            0      0.00%     81.65% # Class of committed instruction. (Count)
system.cpu.commitStats0.committedInstType::SimdDiv            0      0.00%     81.65% # Class of committed instruction. (Count)
system.cpu.commitStats0.committedInstType::SimdSqrt            0      0.00%     81.65% # Class of committed instruction. (Count)
system.cpu.commitStats0.committedInstType::SimdFloatAdd            1      0.00%     81.65% # Class of committed instruction. (Count)
system.cpu.commitStats0.committedInstType::SimdFloatAlu            0      0.00%     81.65% # Class of committed instruction. (Count)
system.cpu.commitStats0.committedInstType::SimdFloatCmp            0      0.00%     81.65% # Class of committed instruction. (Count)
system.cpu.commitStats0.committedInstType::SimdFloatCvt            2      0.00%     81.65% # Class of committed instruction. (Count)
system.cpu.commitStats0.committedInstType::SimdFloatDiv            1      0.00%     81.65% # Class of committed instruction. (Count)
system.cpu.commitStats0.committedInstType::SimdFloatMisc            0      0.00%     81.65% # Class of committed instruction. (Count)
system.cpu.commitStats0.committedInstType::SimdFloatMult            0      0.00%     81.65% # Class of committed instruction. (Count)
system.cpu.commitStats0.committedInstType::SimdFloatMultAcc            0      0.00%     81.65% # Class of committed instruction. (Count)
system.cpu.commitStats0.committedInstType::SimdFloatMatMultAcc            0      0.00%     81.65% # Class of committed instruction. (Count)
system.cpu.commitStats0.committedInstType::SimdFloatSqrt            0      0.00%     81.65% # Class of committed instruction. (Count)
system.cpu.commitStats0.committedInstType::SimdReduceAdd            0      0.00%     81.65% # Class of committed instruction. (Count)
system.cpu.commitStats0.committedInstType::SimdReduceAlu            0      0.00%     81.65% # Class of committed instruction. (Count)
system.cpu.commitStats0.committedInstType::SimdReduceCmp            0      0.00%     81.65% # Class of committed instruction. (Count)
system.cpu.commitStats0.committedInstType::SimdFloatReduceAdd            0      0.00%     81.65% # Class of committed instruction. (Count)
system.cpu.commitStats0.committedInstType::SimdFloatReduceCmp            0      0.00%     81.65% # Class of committed instruction. (Count)
system.cpu.commitStats0.committedInstType::SimdAes            0      0.00%     81.65% # Class of committed instruction. (Count)
system.cpu.commitStats0.committedInstType::SimdAesMix            0      0.00%     81.65% # Class of committed instruction. (Count)
system.cpu.commitStats0.committedInstType::SimdSha1Hash            0      0.00%     81.65% # Class of committed instruction. (Count)
system.cpu.commitStats0.committedInstType::SimdSha1Hash2            0      0.00%     81.65% # Class of committed instruction. (Count)
system.cpu.commitStats0.committedInstType::SimdSha256Hash            0      0.00%     81.65% # Class of committed instruction. (Count)
system.cpu.commitStats0.committedInstType::SimdSha256Hash2            0      0.00%     81.65% # Class of committed instruction. (Count)
system.cpu.commitStats0.committedInstType::SimdShaSigma2            0      0.00%     81.65% # Class of committed instruction. (Count)
system.cpu.commitStats0.committedInstType::SimdShaSigma3            0      0.00%     81.65% # Class of committed instruction. (Count)
system.cpu.commitStats0.committedInstType::SimdPredAlu            0      0.00%     81.65% # Class of committed instruction. (Count)
system.cpu.commitStats0.committedInstType::Matrix            0      0.00%     81.65% # Class of committed instruction. (Count)
system.cpu.commitStats0.committedInstType::MatrixMov            0      0.00%     81.65% # Class of committed instruction. (Count)
system.cpu.commitStats0.committedInstType::MatrixOP            0      0.00%     81.65% # Class of committed instruction. (Count)
system.cpu.commitStats0.committedInstType::MemRead       578829     12.70%     94.35% # Class of committed instruction. (Count)
system.cpu.commitStats0.committedInstType::MemWrite       221200      4.85%     99.21% # Class of committed instruction. (Count)
system.cpu.commitStats0.committedInstType::FloatMemRead        18948      0.42%     99.62% # Class of committed instruction. (Count)
system.cpu.commitStats0.committedInstType::FloatMemWrite        17097      0.38%    100.00% # Class of committed instruction. (Count)
system.cpu.commitStats0.committedInstType::IprAccess            0      0.00%    100.00% # Class of committed instruction. (Count)
system.cpu.commitStats0.committedInstType::InstPrefetch            0      0.00%    100.00% # Class of committed instruction. (Count)
system.cpu.commitStats0.committedInstType::SimdUnitStrideLoad            0      0.00%    100.00% # Class of committed instruction. (Count)
system.cpu.commitStats0.committedInstType::SimdUnitStrideStore            0      0.00%    100.00% # Class of committed instruction. (Count)
system.cpu.commitStats0.committedInstType::SimdUnitStrideMaskLoad            0      0.00%    100.00% # Class of committed instruction. (Count)
system.cpu.commitStats0.committedInstType::SimdUnitStrideMaskStore            0      0.00%    100.00% # Class of committed instruction. (Count)
system.cpu.commitStats0.committedInstType::SimdStridedLoad            0      0.00%    100.00% # Class of committed instruction. (Count)
system.cpu.commitStats0.committedInstType::SimdStridedStore            0      0.00%    100.00% # Class of committed instruction. (Count)
system.cpu.commitStats0.committedInstType::SimdIndexedLoad            0      0.00%    100.00% # Class of committed instruction. (Count)
system.cpu.commitStats0.committedInstType::SimdIndexedStore            0      0.00%    100.00% # Class of committed instruction. (Count)
system.cpu.commitStats0.committedInstType::SimdWholeRegisterLoad            0      0.00%    100.00% # Class of committed instruction. (Count)
system.cpu.commitStats0.committedInstType::SimdWholeRegisterStore            0      0.00%    100.00% # Class of committed instruction. (Count)
system.cpu.commitStats0.committedInstType::SimdUnitStrideFaultOnlyFirstLoad            0      0.00%    100.00% # Class of committed instruction. (Count)
system.cpu.commitStats0.committedInstType::SimdUnitStrideSegmentedLoad            0      0.00%    100.00% # Class of committed instruction. (Count)
system.cpu.commitStats0.committedInstType::SimdUnitStrideSegmentedStore            0      0.00%    100.00% # Class of committed instruction. (Count)
system.cpu.commitStats0.committedInstType::SimdExt            0      0.00%    100.00% # Class of committed instruction. (Count)
system.cpu.commitStats0.committedInstType::SimdFloatExt            0      0.00%    100.00% # Class of committed instruction. (Count)
system.cpu.commitStats0.committedInstType::SimdConfig            0      0.00%    100.00% # Class of committed instruction. (Count)
system.cpu.commitStats0.committedInstType::total      4556837                       # Class of committed instruction. (Count)
system.cpu.commitStats0.committedControl::IsControl       452257                       # Class of control type instructions committed (Count)
system.cpu.commitStats0.committedControl::IsDirectControl       433259                       # Class of control type instructions committed (Count)
system.cpu.commitStats0.committedControl::IsIndirectControl        18765                       # Class of control type instructions committed (Count)
system.cpu.commitStats0.committedControl::IsCondControl       402598                       # Class of control type instructions committed (Count)
system.cpu.commitStats0.committedControl::IsUncondControl        49426                       # Class of control type instructions committed (Count)
system.cpu.commitStats0.committedControl::IsCall        12692                       # Class of control type instructions committed (Count)
system.cpu.commitStats0.committedControl::IsReturn        12685                       # Class of control type instructions committed (Count)
system.cpu.decode.idleCycles                   255243                       # Number of cycles decode is idle (Cycle)
system.cpu.decode.blockedCycles                553355                       # Number of cycles decode is blocked (Cycle)
system.cpu.decode.runCycles                    571342                       # Number of cycles decode is running (Cycle)
system.cpu.decode.unblockCycles                215631                       # Number of cycles decode is unblocking (Cycle)
system.cpu.decode.squashCycles                  17733                       # Number of cycles decode is squashing (Cycle)
system.cpu.decode.branchResolved               285654                       # Number of times decode resolved a branch (Count)
system.cpu.decode.branchMispred                  1721                       # Number of times decode detected a branch misprediction (Count)
system.cpu.decode.decodedInsts                5718352                       # Number of instructions handled by decode (Count)
system.cpu.decode.squashedInsts                  8917                       # Number of squashed instructions handled by decode (Count)
system.cpu.executeStats0.numInsts             5147230                       # Number of executed instructions (Count)
system.cpu.executeStats0.numNop                     0                       # Number of nop insts executed (Count)
system.cpu.executeStats0.numBranches           491009                       # Number of branches executed (Count)
system.cpu.executeStats0.numLoadInsts          681735                       # Number of load instructions executed (Count)
system.cpu.executeStats0.numStoreInsts         285153                       # Number of stores executed (Count)
system.cpu.executeStats0.instRate            3.184444                       # Inst execution rate ((Count/Cycle))
system.cpu.executeStats0.numCCRegReads        2629364                       # Number of times the CC registers were read (Count)
system.cpu.executeStats0.numCCRegWrites       2335715                       # Number of times the CC registers were written (Count)
system.cpu.executeStats0.numFpRegReads         161112                       # Number of times the floating registers were read (Count)
system.cpu.executeStats0.numFpRegWrites         90249                       # Number of times the floating registers were written (Count)
system.cpu.executeStats0.numIntRegReads       6369026                       # Number of times the integer registers were read (Count)
system.cpu.executeStats0.numIntRegWrites      3916470                       # Number of times the integer registers were written (Count)
system.cpu.executeStats0.numMemRefs            966888                       # Number of memory refs (Count)
system.cpu.executeStats0.numMiscRegReads      1968751                       # Number of times the Misc registers were read (Count)
system.cpu.executeStats0.numMiscRegWrites          963                       # Number of times the Misc registers were written (Count)
system.cpu.executeStats0.numVecAluAccesses            0                       # Number of vector alu accesses (Count)
system.cpu.executeStats0.numDiscardedOps            0                       # Number of ops (including micro ops) which were discarded before commit (Count)
system.cpu.fetch.predictedBranches             323515                       # Number of branches that fetch has predicted taken (Count)
system.cpu.fetch.cycles                       1430074                       # Number of cycles fetch has run and was not squashing or blocked (Cycle)
system.cpu.fetch.squashCycles                   38784                       # Number of cycles fetch has spent squashing (Cycle)
system.cpu.fetch.miscStallCycles                  288                       # Number of cycles fetch has spent waiting on interrupts, or bad addresses, or out of MSHRs (Cycle)
system.cpu.fetch.pendingTrapStallCycles          2571                       # Number of stall cycles due to pending traps (Cycle)
system.cpu.fetch.cacheLines                    288081                       # Number of cache lines fetched (Count)
[...]
system.mem_ctrl.dram.bwRead::total          160138033                       # Total read bandwidth from this memory ((Byte/Second))
system.mem_ctrl.dram.bwInstRead::cpu.inst     34923657                       # Instruction read bandwidth from this memory ((Byte/Second))
system.mem_ctrl.dram.bwInstRead::total       34923657                       # Instruction read bandwidth from this memory ((Byte/Second))
system.mem_ctrl.dram.bwWrite::writebacks     33112140                       # Write bandwidth from this memory ((Byte/Second))
system.mem_ctrl.dram.bwWrite::total          33112140                       # Write bandwidth from this memory ((Byte/Second))
system.mem_ctrl.dram.bwTotal::writebacks     33112140                       # Total bandwidth to/from this memory ((Byte/Second))
system.mem_ctrl.dram.bwTotal::cpu.inst       34923657                       # Total bandwidth to/from this memory ((Byte/Second))
system.mem_ctrl.dram.bwTotal::cpu.data      125214376                       # Total bandwidth to/from this memory ((Byte/Second))
system.mem_ctrl.dram.bwTotal::total         193250173                       # Total bandwidth to/from this memory ((Byte/Second))
system.mem_ctrl.dram.readBursts                 51606                       # Number of DRAM read bursts (Count)
system.mem_ctrl.dram.writeBursts                 9756                       # Number of DRAM write bursts (Count)
system.mem_ctrl.dram.perBankRdBursts::0          3979                       # Per bank write bursts (Count)
system.mem_ctrl.dram.perBankRdBursts::1          3289                       # Per bank write bursts (Count)
system.mem_ctrl.dram.perBankRdBursts::2          1777                       # Per bank write bursts (Count)
system.mem_ctrl.dram.perBankRdBursts::3          3121                       # Per bank write bursts (Count)
system.mem_ctrl.dram.perBankRdBursts::4          2271                       # Per bank write bursts (Count)
system.mem_ctrl.dram.perBankRdBursts::5          4694                       # Per bank write bursts (Count)
system.mem_ctrl.dram.perBankRdBursts::6          3437                       # Per bank write bursts (Count)
system.mem_ctrl.dram.perBankRdBursts::7          4225                       # Per bank write bursts (Count)
system.mem_ctrl.dram.perBankRdBursts::8          3387                       # Per bank write bursts (Count)
system.mem_ctrl.dram.perBankRdBursts::9          3826                       # Per bank write bursts (Count)
system.mem_ctrl.dram.perBankRdBursts::10         2455                       # Per bank write bursts (Count)
system.mem_ctrl.dram.perBankRdBursts::11         1644                       # Per bank write bursts (Count)
system.mem_ctrl.dram.perBankRdBursts::12         3901                       # Per bank write bursts (Count)
system.mem_ctrl.dram.perBankRdBursts::13         3824                       # Per bank write bursts (Count)
system.mem_ctrl.dram.perBankRdBursts::14         3918                       # Per bank write bursts (Count)
system.mem_ctrl.dram.perBankRdBursts::15         1858                       # Per bank write bursts (Count)
system.mem_ctrl.dram.perBankWrBursts::0           373                       # Per bank write bursts (Count)
system.mem_ctrl.dram.perBankWrBursts::1           529                       # Per bank write bursts (Count)
system.mem_ctrl.dram.perBankWrBursts::2           420                       # Per bank write bursts (Count)
system.mem_ctrl.dram.perBankWrBursts::3           349                       # Per bank write bursts (Count)
system.mem_ctrl.dram.perBankWrBursts::4           484                       # Per bank write bursts (Count)
system.mem_ctrl.dram.perBankWrBursts::5           671                       # Per bank write bursts (Count)
system.mem_ctrl.dram.perBankWrBursts::6           803                       # Per bank write bursts (Count)
system.mem_ctrl.dram.perBankWrBursts::7           566                       # Per bank write bursts (Count)
system.mem_ctrl.dram.perBankWrBursts::8           510                       # Per bank write bursts (Count)
system.mem_ctrl.dram.perBankWrBursts::9           815                       # Per bank write bursts (Count)
system.mem_ctrl.dram.perBankWrBursts::10          668                       # Per bank write bursts (Count)
system.mem_ctrl.dram.perBankWrBursts::11          580                       # Per bank write bursts (Count)
system.mem_ctrl.dram.perBankWrBursts::12          808                       # Per bank write bursts (Count)
system.mem_ctrl.dram.perBankWrBursts::13         1338                       # Per bank write bursts (Count)
system.mem_ctrl.dram.perBankWrBursts::14          417                       # Per bank write bursts (Count)
system.mem_ctrl.dram.perBankWrBursts::15          425                       # Per bank write bursts (Count)
system.mem_ctrl.dram.totQLat                742232441                       # Total ticks spent queuing (Tick)
system.mem_ctrl.dram.totBusLat              258030000                       # Total ticks spent in databus transfers (Tick)
system.mem_ctrl.dram.totMemAccLat          1709844941                       # Total ticks spent from burst creation until serviced by the DRAM (Tick)
system.mem_ctrl.dram.avgQLat                 14382.68                       # Average queueing delay per DRAM burst ((Tick/Count))
system.mem_ctrl.dram.avgBusLat                5000.00                       # Average bus latency per DRAM burst ((Tick/Count))
system.mem_ctrl.dram.avgMemAccLat            33132.68                       # Average memory access latency per DRAM burst ((Tick/Count))
system.mem_ctrl.dram.readRowHits                26933                       # Number of row buffer hits during reads (Count)
system.mem_ctrl.dram.writeRowHits                8663                       # Number of row buffer hits during writes (Count)
system.mem_ctrl.dram.readRowHitRate             52.19                       # Row buffer hit rate for reads (Ratio)
system.mem_ctrl.dram.writeRowHitRate            88.80                       # Row buffer hit rate for writes (Ratio)
system.mem_ctrl.dram.bytesPerActivate::samples        25759                       # Bytes accessed per row activation (Byte)
system.mem_ctrl.dram.bytesPerActivate::mean   152.403432                       # Bytes accessed per row activation (Byte)
system.mem_ctrl.dram.bytesPerActivate::gmean   103.931328                       # Bytes accessed per row activation (Byte)
system.mem_ctrl.dram.bytesPerActivate::stdev   198.118655                       # Bytes accessed per row activation (Byte)
system.mem_ctrl.dram.bytesPerActivate::0-127        15399     59.78%     59.78% # Bytes accessed per row activation (Byte)
system.mem_ctrl.dram.bytesPerActivate::128-255         6853     26.60%     86.39% # Bytes accessed per row activation (Byte)
system.mem_ctrl.dram.bytesPerActivate::256-383         1279      4.97%     91.35% # Bytes accessed per row activation (Byte)
system.mem_ctrl.dram.bytesPerActivate::384-511          566      2.20%     93.55% # Bytes accessed per row activation (Byte)
system.mem_ctrl.dram.bytesPerActivate::512-639          358      1.39%     94.94% # Bytes accessed per row activation (Byte)
system.mem_ctrl.dram.bytesPerActivate::640-767          232      0.90%     95.84% # Bytes accessed per row activation (Byte)
system.mem_ctrl.dram.bytesPerActivate::768-895          223      0.87%     96.70% # Bytes accessed per row activation (Byte)
system.mem_ctrl.dram.bytesPerActivate::896-1023          176      0.68%     97.39% # Bytes accessed per row activation (Byte)
system.mem_ctrl.dram.bytesPerActivate::1024-1151          673      2.61%    100.00% # Bytes accessed per row activation (Byte)
system.mem_ctrl.dram.bytesPerActivate::total        25759                       # Bytes accessed per row activation (Byte)
system.mem_ctrl.dram.dramBytesRead            3302784                       # Total bytes read (Byte)
system.mem_ctrl.dram.dramBytesWritten          624384                       # Total bytes written (Byte)
system.mem_ctrl.dram.avgRdBW               153.254271                       # Average DRAM read bandwidth in MiBytes/s ((Byte/Second))
system.mem_ctrl.dram.avgWrBW                28.972380                       # Average DRAM write bandwidth in MiBytes/s ((Byte/Second))
system.mem_ctrl.dram.peakBW                  12800.00                       # Theoretical peak bandwidth in MiByte/s ((Byte/Second))
system.mem_ctrl.dram.busUtil                     1.42                       # Data bus utilization in percentage (Ratio)
system.mem_ctrl.dram.busUtilRead                 1.20                       # Data bus utilization in percentage for reads (Ratio)
system.mem_ctrl.dram.busUtilWrite                0.23                       # Data bus utilization in percentage for writes (Ratio)
system.mem_ctrl.dram.pageHitRate                58.01                       # Row buffer hit rate, read and write combined (Ratio)
system.mem_ctrl.dram.power_state.pwrStateResidencyTicks::UNDEFINED  21551007878                       # Cumulative time (in ticks) in various power states (Tick)
system.mem_ctrl.dram.rank0.actEnergy         98424900                       # Energy for activate commands per rank (pJ) (Joule)
system.mem_ctrl.dram.rank0.preEnergy         52302690                       # Energy for precharge commands per rank (pJ) (Joule)
system.mem_ctrl.dram.rank0.readEnergy       191302020                       # Energy for read commands per rank (pJ) (Joule)
system.mem_ctrl.dram.rank0.writeEnergy       21897900                       # Energy for write commands per rank (pJ) (Joule)
system.mem_ctrl.dram.rank0.refreshEnergy 1700708880.000000                       # Energy for refresh commands per rank (pJ) (Joule)
system.mem_ctrl.dram.rank0.actBackEnergy   7622580360                       # Energy for active background per rank (pJ) (Joule)
system.mem_ctrl.dram.rank0.preBackEnergy   1856572320                       # Energy for precharge background per rank (pJ) (Joule)
system.mem_ctrl.dram.rank0.actPowerDownEnergy            0                       # Energy for active power-down per rank (pJ) (Joule)
system.mem_ctrl.dram.rank0.prePowerDownEnergy            0                       # Energy for precharge power-down per rank (pJ) (Joule)
system.mem_ctrl.dram.rank0.selfRefreshEnergy            0                       # Energy for self refresh per rank (pJ) (Joule)
system.mem_ctrl.dram.rank0.totalEnergy    11543789070                       # Total energy per rank (pJ) (Joule)
system.mem_ctrl.dram.rank0.averagePower    535.649615                       # Core power per rank (mW) (Watt)
system.mem_ctrl.dram.rank0.totalIdleTime            0                       # Total Idle time Per DRAM Rank (Tick)
system.mem_ctrl.dram.rank0.pwrStateTime::IDLE   4756255281                       # Time in different power states (Tick)
system.mem_ctrl.dram.rank0.pwrStateTime::REF    719420000                       # Time in different power states (Tick)
system.mem_ctrl.dram.rank0.pwrStateTime::SREF            0                       # Time in different power states (Tick)
system.mem_ctrl.dram.rank0.pwrStateTime::PRE_PDN            0                       # Time in different power states (Tick)
system.mem_ctrl.dram.rank0.pwrStateTime::ACT  16075332597                       # Time in different power states (Tick)
system.mem_ctrl.dram.rank0.pwrStateTime::ACT_PDN            0                       # Time in different power states (Tick)
system.mem_ctrl.dram.rank1.actEnergy         85544340                       # Energy for activate commands per rank (pJ) (Joule)
system.mem_ctrl.dram.rank1.preEnergy         45452715                       # Energy for precharge commands per rank (pJ) (Joule)
system.mem_ctrl.dram.rank1.readEnergy       177164820                       # Energy for read commands per rank (pJ) (Joule)
system.mem_ctrl.dram.rank1.writeEnergy       29028420                       # Energy for write commands per rank (pJ) (Joule)
system.mem_ctrl.dram.rank1.refreshEnergy 1700708880.000000                       # Energy for refresh commands per rank (pJ) (Joule)
system.mem_ctrl.dram.rank1.actBackEnergy   7798318770                       # Energy for active background per rank (pJ) (Joule)
system.mem_ctrl.dram.rank1.preBackEnergy   1708582080                       # Energy for precharge background per rank (pJ) (Joule)
system.mem_ctrl.dram.rank1.actPowerDownEnergy            0                       # Energy for active power-down per rank (pJ) (Joule)
system.mem_ctrl.dram.rank1.prePowerDownEnergy            0                       # Energy for precharge power-down per rank (pJ) (Joule)
system.mem_ctrl.dram.rank1.selfRefreshEnergy            0                       # Energy for self refresh per rank (pJ) (Joule)
system.mem_ctrl.dram.rank1.totalEnergy    11544800025                       # Total energy per rank (pJ) (Joule)
system.mem_ctrl.dram.rank1.averagePower    535.696525                       # Core power per rank (mW) (Watt)
system.mem_ctrl.dram.rank1.totalIdleTime            0                       # Total Idle time Per DRAM Rank (Tick)
system.mem_ctrl.dram.rank1.pwrStateTime::IDLE   4369936438                       # Time in different power states (Tick)
system.mem_ctrl.dram.rank1.pwrStateTime::REF    719420000                       # Time in different power states (Tick)
system.mem_ctrl.dram.rank1.pwrStateTime::SREF            0                       # Time in different power states (Tick)
system.mem_ctrl.dram.rank1.pwrStateTime::PRE_PDN            0                       # Time in different power states (Tick)
system.mem_ctrl.dram.rank1.pwrStateTime::ACT  16461651440                       # Time in different power states (Tick)
system.mem_ctrl.dram.rank1.pwrStateTime::ACT_PDN            0                       # Time in different power states (Tick)
system.mem_ctrl.power_state.pwrStateResidencyTicks::UNDEFINED  21551007878                       # Cumulative time (in ticks) in various power states (Tick)
system.membus.transDist::ReadResp               44444                       # Transaction distribution (Count)
system.membus.transDist::WritebackDirty         11150                       # Transaction distribution (Count)
system.membus.transDist::CleanEvict             42646                       # Transaction distribution (Count)
system.membus.transDist::UpgradeReq                 3                       # Transaction distribution (Count)
system.membus.transDist::ReadExReq               9483                       # Transaction distribution (Count)
system.membus.transDist::ReadExResp              9483                       # Transaction distribution (Count)
system.membus.transDist::ReadSharedReq          44444                       # Transaction distribution (Count)
system.membus.pktCount_system.cpu.l1d.mem_side_port::system.mem_ctrl.port       126431                       # Packet count per connected requestor and responder (Count)
system.membus.pktCount_system.cpu.l1d.mem_side_port::total       126431                       # Packet count per connected requestor and responder (Count)
system.membus.pktCount_system.cpu.l1i.mem_side_port::system.mem_ctrl.port        35219                       # Packet count per connected requestor and responder (Count)
system.membus.pktCount_system.cpu.l1i.mem_side_port::total        35219                       # Packet count per connected requestor and responder (Count)
system.membus.pktCount::total                  161650                       # Packet count per connected requestor and responder (Count)
system.membus.pktSize_system.cpu.l1d.mem_side_port::system.mem_ctrl.port      3412096                       # Cumulative packet size per connected requestor and responder (Byte)
system.membus.pktSize_system.cpu.l1d.mem_side_port::total      3412096                       # Cumulative packet size per connected requestor and responder (Byte)
system.membus.pktSize_system.cpu.l1i.mem_side_port::system.mem_ctrl.port       752640                       # Cumulative packet size per connected requestor and responder (Byte)
system.membus.pktSize_system.cpu.l1i.mem_side_port::total       752640                       # Cumulative packet size per connected requestor and responder (Byte)
system.membus.pktSize::total                  4164736                       # Cumulative packet size per connected requestor and responder (Byte)
system.membus.snoops                                3                       # Total snoops (Count)
system.membus.snoopTraffic                        192                       # Total snoop traffic (Byte)
system.membus.snoopFanout::samples              53930                       # Request fanout histogram (Count)
system.membus.snoopFanout::mean              0.001520                       # Request fanout histogram (Count)
system.membus.snoopFanout::stdev             0.038964                       # Request fanout histogram (Count)
system.membus.snoopFanout::underflows               0      0.00%      0.00% # Request fanout histogram (Count)
system.membus.snoopFanout::0                    53848     99.85%     99.85% # Request fanout histogram (Count)
system.membus.snoopFanout::1                       82      0.15%    100.00% # Request fanout histogram (Count)
system.membus.snoopFanout::2                        0      0.00%    100.00% # Request fanout histogram (Count)
system.membus.snoopFanout::overflows                0      0.00%    100.00% # Request fanout histogram (Count)
system.membus.snoopFanout::min_value                0                       # Request fanout histogram (Count)
system.membus.snoopFanout::max_value                1                       # Request fanout histogram (Count)
system.membus.snoopFanout::total                53930                       # Request fanout histogram (Count)
system.membus.power_state.pwrStateResidencyTicks::UNDEFINED  21551007878                       # Cumulative time (in ticks) in various power states (Tick)
system.membus.reqLayer2.occupancy          2030962558                       # Layer occupancy (ticks) (Tick)
system.membus.reqLayer2.utilization               0.1                       # Layer utilization (Ratio)
system.membus.respLayer2.occupancy         2854175612                       # Layer occupancy (ticks) (Tick)
system.membus.respLayer2.utilization              0.1                       # Layer utilization (Ratio)
system.membus.respLayer3.occupancy          803601973                       # Layer occupancy (ticks) (Tick)
system.membus.respLayer3.utilization              0.0                       # Layer utilization (Ratio)
system.membus.snoop_filter.totRequests         107726                       # Total number of requests made to the snoop filter. (Count)
system.membus.snoop_filter.hitSingleRequests        53797                       # Number of requests hitting in the snoop filter with a single holder of the requested data. (Count)
system.membus.snoop_filter.hitMultiRequests           81                       # Number of requests hitting in the snoop filter with multiple (>1) holders of the requested data. (Count)
system.membus.snoop_filter.totSnoops                0                       # Total number of snoops made to the snoop filter. (Count)
system.membus.snoop_filter.hitSingleSnoops            0                       # Number of snoops hitting in the snoop filter with a single holder of the requested data. (Count)
system.membus.snoop_filter.hitMultiSnoops            0                       # Number of snoops hitting in the snoop filter with multiple (>1) holders of the requested data. (Count)
system.workload.inst.arm                            0                       # number of arm instructions executed (Count)
system.workload.inst.quiesce                        0                       # number of quiesce instructions executed (Count)

---------- End Simulation Statistics   ----------
