
---------- Begin Simulation Statistics ----------
simSeconds                                   1.021089                       # Number of seconds simulated (Second)
simTicks                                 1021088632146                       # Number of ticks simulated (Tick)
finalTick                                1021088632146                       # Number of ticks from beginning of simulation (restored from checkpoints and never reset) (Tick)
simFreq                                  1000000000000                       # The number of ticks per simulated second ((Tick/Second))
hostSeconds                                   1242.40                       # Real time elapsed on the host (Second)
hostTickRate                                821867743                       # The number of ticks simulated per host second (ticks/s) ((Tick/Second))
hostMemory                                    8653080                       # Number of bytes of host memory used (Byte)
simInsts                                    137517863                       # Number of instructions simulated (Count)
simOps                                      272526573                       # Number of ops (including micro ops) simulated (Count)
hostInstRate                                   110687                       # Simulator instruction rate (inst/s) ((Count/Second))
hostOpRate                                     219355                       # Simulator op (including micro ops) rate (op/s) ((Count/Second))
system.clk_domain.clock                         13333                       # Clock period in ticks (Tick)
system.clk_domain.voltage_domain.voltage            1                       # Voltage in Volts (Volt)
system.cpu.numCycles                         76583563                       # Number of cpu cycles simulated (Cycle)
system.cpu.cpi                               0.556899                       # CPI: cycles per instruction (core level) ((Cycle/Count))
system.cpu.ipc                               1.795658                       # IPC: instructions per cycle (core level) ((Count/Cycle))
system.cpu.numWorkItemsStarted                      0                       # Number of work items this cpu started (Count)
system.cpu.numWorkItemsCompleted                    0                       # Number of work items this cpu completed (Count)
system.cpu.instsAdded                       317375009                       # Number of instructions added to the IQ (excludes non-spec) (Count)
system.cpu.nonSpecInstsAdded                     2424                       # Number of non-speculative instructions added to the IQ (Count)
system.cpu.instsIssued                      315856648                       # Number of instructions issued (Count)
system.cpu.squashedInstsIssued                   6991                       # Number of squashed instructions issued (Count)
system.cpu.squashedInstsExamined             44850779                       # Number of squashed instructions iterated over during squash; mainly for profiling (Count)
system.cpu.squashedOperandsExamined           9370351                       # Number of squashed operands that are examined and possibly removed from graph (Count)
system.cpu.squashedNonSpecRemoved                 205                       # Number of squashed non-spec instructions that were removed (Count)
system.cpu.numIssuedDist::samples            76581104                       # Number of insts issued each cycle (Count)
system.cpu.numIssuedDist::mean               4.124472                       # Number of insts issued each cycle (Count)
system.cpu.numIssuedDist::stdev              2.476847                       # Number of insts issued each cycle (Count)
system.cpu.numIssuedDist::underflows                0      0.00%      0.00% # Number of insts issued each cycle (Count)
system.cpu.numIssuedDist::0                   8000397     10.45%     10.45% # Number of insts issued each cycle (Count)
system.cpu.numIssuedDist::1                   7474604      9.76%     20.21% # Number of insts issued each cycle (Count)
system.cpu.numIssuedDist::2                   6696178      8.74%     28.95% # Number of insts issued each cycle (Count)
system.cpu.numIssuedDist::3                   5932671      7.75%     36.70% # Number of insts issued each cycle (Count)
system.cpu.numIssuedDist::4                  12005997     15.68%     52.38% # Number of insts issued each cycle (Count)
system.cpu.numIssuedDist::5                  13635382     17.81%     70.18% # Number of insts issued each cycle (Count)
system.cpu.numIssuedDist::6                   7931473     10.36%     80.54% # Number of insts issued each cycle (Count)
system.cpu.numIssuedDist::7                   5833277      7.62%     88.15% # Number of insts issued each cycle (Count)
system.cpu.numIssuedDist::8                   9071125     11.85%    100.00% # Number of insts issued each cycle (Count)
system.cpu.numIssuedDist::overflows                 0      0.00%    100.00% # Number of insts issued each cycle (Count)
system.cpu.numIssuedDist::min_value                 0                       # Number of insts issued each cycle (Count)
system.cpu.numIssuedDist::max_value                 8                       # Number of insts issued each cycle (Count)
system.cpu.numIssuedDist::total              76581104                       # Number of insts issued each cycle (Count)
system.cpu.statFuBusy::No_OpClass                   0      0.00%      0.00% # attempts to use FU when none available (Count)
system.cpu.statFuBusy::IntAlu                 2748622     76.42%     76.42% # attempts to use FU when none available (Count)
system.cpu.statFuBusy::IntMult                      0      0.00%     76.42% # attempts to use FU when none available (Count)
system.cpu.statFuBusy::IntDiv                       0      0.00%     76.42% # attempts to use FU when none available (Count)
system.cpu.statFuBusy::FloatAdd                     0      0.00%     76.42% # attempts to use FU when none available (Count)
system.cpu.statFuBusy::FloatCmp                     0      0.00%     76.42% # attempts to use FU when none available (Count)
system.cpu.statFuBusy::FloatCvt                     0      0.00%     76.42% # attempts to use FU when none available (Count)
system.cpu.statFuBusy::FloatMult                    0      0.00%     76.42% # attempts to use FU when none available (Count)
system.cpu.statFuBusy::FloatMultAcc                 0      0.00%     76.42% # attempts to use FU when none available (Count)
system.cpu.statFuBusy::FloatDiv                     0      0.00%     76.42% # attempts to use FU when none available (Count)
system.cpu.statFuBusy::FloatMisc                    0      0.00%     76.42% # attempts to use FU when none available (Count)
system.cpu.statFuBusy::FloatSqrt                    0      0.00%     76.42% # attempts to use FU when none available (Count)
system.cpu.statFuBusy::SimdAdd                      2      0.00%     76.42% # attempts to use FU when none available (Count)
system.cpu.statFuBusy::SimdAddAcc                   0      0.00%     76.42% # attempts to use FU when none available (Count)
system.cpu.statFuBusy::SimdAlu                    106      0.00%     76.42% # attempts to use FU when none available (Count)
system.cpu.statFuBusy::SimdCmp                      0      0.00%     76.42% # attempts to use FU when none available (Count)
system.cpu.statFuBusy::SimdCvt                    186      0.01%     76.43% # attempts to use FU when none available (Count)
system.cpu.statFuBusy::SimdMisc                    18      0.00%     76.43% # attempts to use FU when none available (Count)
system.cpu.statFuBusy::SimdMult                     0      0.00%     76.43% # attempts to use FU when none available (Count)
system.cpu.statFuBusy::SimdMultAcc                  0      0.00%     76.43% # attempts to use FU when none available (Count)
system.cpu.statFuBusy::SimdMatMultAcc               0      0.00%     76.43% # attempts to use FU when none available (Count)
system.cpu.statFuBusy::SimdShift                   32      0.00%     76.43% # attempts to use FU when none available (Count)
system.cpu.statFuBusy::SimdShiftAcc                 0      0.00%     76.43% # attempts to use FU when none available (Count)
system.cpu.statFuBusy::SimdDiv                      0      0.00%     76.43% # attempts to use FU when none available (Count)
system.cpu.statFuBusy::SimdSqrt                     0      0.00%     76.43% # attempts to use FU when none available (Count)
system.cpu.statFuBusy::SimdFloatAdd                 0      0.00%     76.43% # attempts to use FU when none available (Count)
system.cpu.statFuBusy::SimdFloatAlu                 0      0.00%     76.43% # attempts to use FU when none available (Count)
system.cpu.statFuBusy::SimdFloatCmp                 0      0.00%     76.43% # attempts to use FU when none available (Count)
system.cpu.statFuBusy::SimdFloatCvt                 0      0.00%     76.43% # attempts to use FU when none available (Count)
system.cpu.statFuBusy::SimdFloatDiv                 0      0.00%     76.43% # attempts to use FU when none available (Count)
system.cpu.statFuBusy::SimdFloatMisc                0      0.00%     76.43% # attempts to use FU when none available (Count)
system.cpu.statFuBusy::SimdFloatMult                0      0.00%     76.43% # attempts to use FU when none available (Count)
system.cpu.statFuBusy::SimdFloatMultAcc             0      0.00%     76.43% # attempts to use FU when none available (Count)
system.cpu.statFuBusy::SimdFloatMatMultAcc            0      0.00%     76.43% # attempts to use FU when none available (Count)
system.cpu.statFuBusy::SimdFloatSqrt                0      0.00%     76.43% # attempts to use FU when none available (Count)
system.cpu.statFuBusy::SimdReduceAdd                0      0.00%     76.43% # attempts to use FU when none available (Count)
system.cpu.statFuBusy::SimdReduceAlu                0      0.00%     76.43% # attempts to use FU when none available (Count)
system.cpu.statFuBusy::SimdReduceCmp                0      0.00%     76.43% # attempts to use FU when none available (Count)
system.cpu.statFuBusy::SimdFloatReduceAdd            0      0.00%     76.43% # attempts to use FU when none available (Count)
system.cpu.statFuBusy::SimdFloatReduceCmp            0      0.00%     76.43% # attempts to use FU when none available (Count)
system.cpu.statFuBusy::SimdAes                      0      0.00%     76.43% # attempts to use FU when none available (Count)
system.cpu.statFuBusy::SimdAesMix                   0      0.00%     76.43% # attempts to use FU when none available (Count)
system.cpu.statFuBusy::SimdSha1Hash                 0      0.00%     76.43% # attempts to use FU when none available (Count)
system.cpu.statFuBusy::SimdSha1Hash2                0      0.00%     76.43% # attempts to use FU when none available (Count)
system.cpu.statFuBusy::SimdSha256Hash               0      0.00%     76.43% # attempts to use FU when none available (Count)
system.cpu.statFuBusy::SimdSha256Hash2              0      0.00%     76.43% # attempts to use FU when none available (Count)
system.cpu.statFuBusy::SimdShaSigma2                0      0.00%     76.43% # attempts to use FU when none available (Count)
system.cpu.statFuBusy::SimdShaSigma3                0      0.00%     76.43% # attempts to use FU when none available (Count)
system.cpu.statFuBusy::SimdPredAlu                  0      0.00%     76.43% # attempts to use FU when none available (Count)
system.cpu.statFuBusy::Matrix                       0      0.00%     76.43% # attempts to use FU when none available (Count)
system.cpu.statFuBusy::MatrixMov                    0      0.00%     76.43% # attempts to use FU when none available (Count)
system.cpu.statFuBusy::MatrixOP                     0      0.00%     76.43% # attempts to use FU when none available (Count)
system.cpu.statFuBusy::MemRead                 427283     11.88%     88.31% # attempts to use FU when none available (Count)
system.cpu.statFuBusy::MemWrite                419519     11.66%     99.97% # attempts to use FU when none available (Count)
system.cpu.statFuBusy::FloatMemRead               549      0.02%     99.99% # attempts to use FU when none available (Count)
system.cpu.statFuBusy::FloatMemWrite              429      0.01%    100.00% # attempts to use FU when none available (Count)
system.cpu.statFuBusy::IprAccess                    0      0.00%    100.00% # attempts to use FU when none available (Count)
system.cpu.statFuBusy::InstPrefetch                 0      0.00%    100.00% # attempts to use FU when none available (Count)
system.cpu.statFuBusy::SimdUnitStrideLoad            0      0.00%    100.00% # attempts to use FU when none available (Count)
system.cpu.statFuBusy::SimdUnitStrideStore            0      0.00%    100.00% # attempts to use FU when none available (Count)
system.cpu.statFuBusy::SimdUnitStrideMaskLoad            0      0.00%    100.00% # attempts to use FU when none available (Count)
system.cpu.statFuBusy::SimdUnitStrideMaskStore            0      0.00%    100.00% # attempts to use FU when none available (Count)
system.cpu.statFuBusy::SimdStridedLoad              0      0.00%    100.00% # attempts to use FU when none available (Count)
system.cpu.statFuBusy::SimdStridedStore             0      0.00%    100.00% # attempts to use FU when none available (Count)
system.cpu.statFuBusy::SimdIndexedLoad              0      0.00%    100.00% # attempts to use FU when none available (Count)
system.cpu.statFuBusy::SimdIndexedStore             0      0.00%    100.00% # attempts to use FU when none available (Count)
system.cpu.statFuBusy::SimdWholeRegisterLoad            0      0.00%    100.00% # attempts to use FU when none available (Count)
system.cpu.statFuBusy::SimdWholeRegisterStore            0      0.00%    100.00% # attempts to use FU when none available (Count)
system.cpu.statFuBusy::SimdUnitStrideFaultOnlyFirstLoad            0      0.00%    100.00% # attempts to use FU when none available (Count)
system.cpu.statFuBusy::SimdUnitStrideSegmentedLoad            0      0.00%    100.00% # attempts to use FU when none available (Count)
system.cpu.statFuBusy::SimdUnitStrideSegmentedStore            0      0.00%    100.00% # attempts to use FU when none available (Count)
system.cpu.statFuBusy::SimdExt                      0      0.00%    100.00% # attempts to use FU when none available (Count)
system.cpu.statFuBusy::SimdFloatExt                 0      0.00%    100.00% # attempts to use FU when none available (Count)
system.cpu.statFuBusy::SimdConfig                   0      0.00%    100.00% # attempts to use FU when none available (Count)
system.cpu.statIssuedInstType_0::No_OpClass      3297228      1.04%      1.04% # Number of instructions issued per FU type, per thread (Count)
system.cpu.statIssuedInstType_0::IntAlu     219148160     69.38%     70.43% # Number of instructions issued per FU type, per thread (Count)
system.cpu.statIssuedInstType_0::IntMult       817689      0.26%     70.68% # Number of instructions issued per FU type, per thread (Count)
system.cpu.statIssuedInstType_0::IntDiv         42391      0.01%     70.70% # Number of instructions issued per FU type, per thread (Count)
system.cpu.statIssuedInstType_0::FloatAdd      1235390      0.39%     71.09% # Number of instructions issued per FU type, per thread (Count)
system.cpu.statIssuedInstType_0::FloatCmp            0      0.00%     71.09% # Number of instructions issued per FU type, per thread (Count)
system.cpu.statIssuedInstType_0::FloatCvt         1254      0.00%     71.09% # Number of instructions issued per FU type, per thread (Count)
system.cpu.statIssuedInstType_0::FloatMult            0      0.00%     71.09% # Number of instructions issued per FU type, per thread (Count)
system.cpu.statIssuedInstType_0::FloatMultAcc            0      0.00%     71.09% # Number of instructions issued per FU type, per thread (Count)
system.cpu.statIssuedInstType_0::FloatDiv            0      0.00%     71.09% # Number of instructions issued per FU type, per thread (Count)
system.cpu.statIssuedInstType_0::FloatMisc            0      0.00%     71.09% # Number of instructions issued per FU type, per thread (Count)
system.cpu.statIssuedInstType_0::FloatSqrt            0      0.00%     71.09% # Number of instructions issued per FU type, per thread (Count)
system.cpu.statIssuedInstType_0::SimdAdd         7323      0.00%     71.09% # Number of instructions issued per FU type, per thread (Count)
system.cpu.statIssuedInstType_0::SimdAddAcc            0      0.00%     71.09% # Number of instructions issued per FU type, per thread (Count)
system.cpu.statIssuedInstType_0::SimdAlu       835337      0.26%     71.36% # Number of instructions issued per FU type, per thread (Count)
system.cpu.statIssuedInstType_0::SimdCmp            6      0.00%     71.36% # Number of instructions issued per FU type, per thread (Count)
system.cpu.statIssuedInstType_0::SimdCvt        16123      0.01%     71.36% # Number of instructions issued per FU type, per thread (Count)
system.cpu.statIssuedInstType_0::SimdMisc      2060120      0.65%     72.01% # Number of instructions issued per FU type, per thread (Count)
system.cpu.statIssuedInstType_0::SimdMult            0      0.00%     72.01% # Number of instructions issued per FU type, per thread (Count)
system.cpu.statIssuedInstType_0::SimdMultAcc            0      0.00%     72.01% # Number of instructions issued per FU type, per thread (Count)
system.cpu.statIssuedInstType_0::SimdMatMultAcc            0      0.00%     72.01% # Number of instructions issued per FU type, per thread (Count)
system.cpu.statIssuedInstType_0::SimdShift         3739      0.00%     72.02% # Number of instructions issued per FU type, per thread (Count)
system.cpu.statIssuedInstType_0::SimdShiftAcc            0      0.00%     72.02% # Number of instructions issued per FU type, per thread (Count)
system.cpu.statIssuedInstType_0::SimdDiv            0      0.00%     72.02% # Number of instructions issued per FU type, per thread (Count)
system.cpu.statIssuedInstType_0::SimdSqrt            0      0.00%     72.02% # Number of instructions issued per FU type, per thread (Count)
system.cpu.statIssuedInstType_0::SimdFloatAdd       408633      0.13%     72.14% # Number of instructions issued per FU type, per thread (Count)
system.cpu.statIssuedInstType_0::SimdFloatAlu            0      0.00%     72.14% # Number of instructions issued per FU type, per thread (Count)
system.cpu.statIssuedInstType_0::SimdFloatCmp            0      0.00%     72.14% # Number of instructions issued per FU type, per thread (Count)
system.cpu.statIssuedInstType_0::SimdFloatCvt       817266      0.26%     72.40% # Number of instructions issued per FU type, per thread (Count)
system.cpu.statIssuedInstType_0::SimdFloatDiv       408633      0.13%     72.53% # Number of instructions issued per FU type, per thread (Count)
system.cpu.statIssuedInstType_0::SimdFloatMisc            0      0.00%     72.53% # Number of instructions issued per FU type, per thread (Count)
system.cpu.statIssuedInstType_0::SimdFloatMult            0      0.00%     72.53% # Number of instructions issued per FU type, per thread (Count)
system.cpu.statIssuedInstType_0::SimdFloatMultAcc            0      0.00%     72.53% # Number of instructions issued per FU type, per thread (Count)
system.cpu.statIssuedInstType_0::SimdFloatMatMultAcc            0      0.00%     72.53% # Number of instructions issued per FU type, per thread (Count)
system.cpu.statIssuedInstType_0::SimdFloatSqrt            0      0.00%     72.53% # Number of instructions issued per FU type, per thread (Count)
system.cpu.statIssuedInstType_0::SimdReduceAdd            0      0.00%     72.53% # Number of instructions issued per FU type, per thread (Count)
system.cpu.statIssuedInstType_0::SimdReduceAlu            0      0.00%     72.53% # Number of instructions issued per FU type, per thread (Count)
system.cpu.statIssuedInstType_0::SimdReduceCmp            0      0.00%     72.53% # Number of instructions issued per FU type, per thread (Count)
system.cpu.statIssuedInstType_0::SimdFloatReduceAdd            0      0.00%     72.53% # Number of instructions issued per FU type, per thread (Count)
system.cpu.statIssuedInstType_0::SimdFloatReduceCmp            0      0.00%     72.53% # Number of instructions issued per FU type, per thread (Count)
system.cpu.statIssuedInstType_0::SimdAes            0      0.00%     72.53% # Number of instructions issued per FU type, per thread (Count)
system.cpu.statIssuedInstType_0::SimdAesMix            0      0.00%     72.53% # Number of instructions issued per FU type, per thread (Count)
system.cpu.statIssuedInstType_0::SimdSha1Hash            0      0.00%     72.53% # Number of instructions issued per FU type, per thread (Count)
system.cpu.statIssuedInstType_0::SimdSha1Hash2            0      0.00%     72.53% # Number of instructions issued per FU type, per thread (Count)
system.cpu.statIssuedInstType_0::SimdSha256Hash            0      0.00%     72.53% # Number of instructions issued per FU type, per thread (Count)
system.cpu.statIssuedInstType_0::SimdSha256Hash2            0      0.00%     72.53% # Number of instructions issued per FU type, per thread (Count)
system.cpu.statIssuedInstType_0::SimdShaSigma2            0      0.00%     72.53% # Number of instructions issued per FU type, per thread (Count)
system.cpu.statIssuedInstType_0::SimdShaSigma3            0      0.00%     72.53% # Number of instructions issued per FU type, per thread (Count)
system.cpu.statIssuedInstType_0::SimdPredAlu            0      0.00%     72.53% # Number of instructions issued per FU type, per thread (Count)
system.cpu.statIssuedInstType_0::Matrix             0      0.00%     72.53% # Number of instructions issued per FU type, per thread (Count)
system.cpu.statIssuedInstType_0::MatrixMov            0      0.00%     72.53% # Number of instructions issued per FU type, per thread (Count)
system.cpu.statIssuedInstType_0::MatrixOP            0      0.00%     72.53% # Number of instructions issued per FU type, per thread (Count)
system.cpu.statIssuedInstType_0::MemRead     55985162     17.72%     90.26% # Number of instructions issued per FU type, per thread (Count)
system.cpu.statIssuedInstType_0::MemWrite     29096035      9.21%     99.47% # Number of instructions issued per FU type, per thread (Count)
system.cpu.statIssuedInstType_0::FloatMemRead      1456022      0.46%     99.93% # Number of instructions issued per FU type, per thread (Count)
system.cpu.statIssuedInstType_0::FloatMemWrite       220137      0.07%    100.00% # Number of instructions issued per FU type, per thread (Count)
system.cpu.statIssuedInstType_0::IprAccess            0      0.00%    100.00% # Number of instructions issued per FU type, per thread (Count)
system.cpu.statIssuedInstType_0::InstPrefetch            0      0.00%    100.00% # Number of instructions issued per FU type, per thread (Count)
system.cpu.statIssuedInstType_0::SimdUnitStrideLoad            0      0.00%    100.00% # Number of instructions issued per FU type, per thread (Count)
system.cpu.statIssuedInstType_0::SimdUnitStrideStore            0      0.00%    100.00% # Number of instructions issued per FU type, per thread (Count)
system.cpu.statIssuedInstType_0::SimdUnitStrideMaskLoad            0      0.00%    100.00% # Number of instructions issued per FU type, per thread (Count)
system.cpu.statIssuedInstType_0::SimdUnitStrideMaskStore            0      0.00%    100.00% # Number of instructions issued per FU type, per thread (Count)
system.cpu.statIssuedInstType_0::SimdStridedLoad            0      0.00%    100.00% # Number of instructions issued per FU type, per thread (Count)
system.cpu.statIssuedInstType_0::SimdStridedStore            0      0.00%    100.00% # Number of instructions issued per FU type, per thread (Count)
system.cpu.statIssuedInstType_0::SimdIndexedLoad            0      0.00%    100.00% # Number of instructions issued per FU type, per thread (Count)
system.cpu.statIssuedInstType_0::SimdIndexedStore            0      0.00%    100.00% # Number of instructions issued per FU type, per thread (Count)
system.cpu.statIssuedInstType_0::SimdWholeRegisterLoad            0      0.00%    100.00% # Number of instructions issued per FU type, per thread (Count)
system.cpu.statIssuedInstType_0::SimdWholeRegisterStore            0      0.00%    100.00% # Number of instructions issued per FU type, per thread (Count)
system.cpu.statIssuedInstType_0::SimdUnitStrideFaultOnlyFirstLoad            0      0.00%    100.00% # Number of instructions issued per FU type, per thread (Count)
system.cpu.statIssuedInstType_0::SimdUnitStrideSegmentedLoad            0      0.00%    100.00% # Number of instructions issued per FU type, per thread (Count)
system.cpu.statIssuedInstType_0::SimdUnitStrideSegmentedStore            0      0.00%    100.00% # Number of instructions issued per FU type, per thread (Count)
system.cpu.statIssuedInstType_0::SimdExt            0      0.00%    100.00% # Number of instructions issued per FU type, per thread (Count)
system.cpu.statIssuedInstType_0::SimdFloatExt            0      0.00%    100.00% # Number of instructions issued per FU type, per thread (Count)
system.cpu.statIssuedInstType_0::SimdConfig            0      0.00%    100.00% # Number of instructions issued per FU type, per thread (Count)
system.cpu.statIssuedInstType_0::total      315856648                       # Number of instructions issued per FU type, per thread (Count)
system.cpu.issueRate                         4.124340                       # Inst issue rate ((Count/Cycle))
system.cpu.fuBusy                             3596746                       # FU busy when requested (Count)
system.cpu.fuBusyRate                        0.011387                       # FU busy rate (busy events/executed inst) ((Count/Count))
system.cpu.intInstQueueReads                696538543                       # Number of integer instruction queue reads (Count)
system.cpu.intInstQueueWrites               352030951                       # Number of integer instruction queue writes (Count)
system.cpu.intInstQueueWakeupAccesses       306487856                       # Number of integer instruction queue wakeup accesses (Count)
system.cpu.fpInstQueueReads                  15359590                       # Number of floating instruction queue reads (Count)
system.cpu.fpInstQueueWrites                 10197811                       # Number of floating instruction queue writes (Count)
system.cpu.fpInstQueueWakeupAccesses          7673557                       # Number of floating instruction queue wakeup accesses (Count)
system.cpu.vecInstQueueReads                        0                       # Number of vector instruction queue reads (Count)
system.cpu.vecInstQueueWrites                       0                       # Number of vector instruction queue writes (Count)
system.cpu.vecInstQueueWakeupAccesses               0                       # Number of vector instruction queue wakeup accesses (Count)
system.cpu.intAluAccesses                   308475983                       # Number of integer alu accesses (Count)
system.cpu.fpAluAccesses                      7680183                       # Number of floating point alu accesses (Count)
system.cpu.vecAluAccesses                           0                       # Number of vector alu accesses (Count)
system.cpu.numSquashedInsts                   1055679                       # Number of squashed instructions skipped in execute (Count)
system.cpu.numSwp                                   0                       # Number of swp insts executed (Count)
system.cpu.timesIdled                             735                       # Number of times that the entire CPU went into an idle state and unscheduled itself (Count)
system.cpu.idleCycles                            2459                       # Total number of cycles that the CPU has spent unscheduled due to idling (Cycle)
system.cpu.MemDepUnit__0.insertedLoads       57678879                       # Number of loads inserted to the mem dependence unit. (Count)
system.cpu.MemDepUnit__0.insertedStores      29332680                       # Number of stores inserted to the mem dependence unit. (Count)
system.cpu.MemDepUnit__0.conflictingLoads     10471958                       # Number of conflicting loads. (Count)
system.cpu.MemDepUnit__0.conflictingStores     10248814                       # Number of conflicting stores. (Count)
system.cpu.MemDepUnit__1.insertedLoads              0                       # Number of loads inserted to the mem dependence unit. (Count)
system.cpu.MemDepUnit__1.insertedStores             0                       # Number of stores inserted to the mem dependence unit. (Count)
system.cpu.MemDepUnit__1.conflictingLoads            0                       # Number of conflicting loads. (Count)
system.cpu.MemDepUnit__1.conflictingStores            0                       # Number of conflicting stores. (Count)
system.cpu.MemDepUnit__2.insertedLoads              0                       # Number of loads inserted to the mem dependence unit. (Count)
system.cpu.MemDepUnit__2.insertedStores             0                       # Number of stores inserted to the mem dependence unit. (Count)
system.cpu.MemDepUnit__2.conflictingLoads            0                       # Number of conflicting loads. (Count)
system.cpu.MemDepUnit__2.conflictingStores            0                       # Number of conflicting stores. (Count)
system.cpu.MemDepUnit__3.insertedLoads              0                       # Number of loads inserted to the mem dependence unit. (Count)
system.cpu.MemDepUnit__3.insertedStores             0                       # Number of stores inserted to the mem dependence unit. (Count)
system.cpu.MemDepUnit__3.conflictingLoads            0                       # Number of conflicting loads. (Count)
system.cpu.MemDepUnit__3.conflictingStores            0                       # Number of conflicting stores. (Count)
system.cpu.branchPred.lookups_0::NoBranch         1864      0.01%      0.01% # Number of BP lookups (Count)
system.cpu.branchPred.lookups_0::Return       3490654     11.05%     11.05% # Number of BP lookups (Count)
system.cpu.branchPred.lookups_0::CallDirect      3291304     10.42%     21.47% # Number of BP lookups (Count)
system.cpu.branchPred.lookups_0::CallIndirect         1359      0.00%     21.48% # Number of BP lookups (Count)
system.cpu.branchPred.lookups_0::DirectCond     23755918     75.19%     96.66% # Number of BP lookups (Count)
system.cpu.branchPred.lookups_0::DirectUncond       430615      1.36%     98.03% # Number of BP lookups (Count)
system.cpu.branchPred.lookups_0::IndirectCond            0      0.00%     98.03% # Number of BP lookups (Count)
system.cpu.branchPred.lookups_0::IndirectUncond       623870      1.97%    100.00% # Number of BP lookups (Count)
system.cpu.branchPred.lookups_0::total       31595584                       # Number of BP lookups (Count)
system.cpu.branchPred.squashes_0::NoBranch         1583      0.02%      0.02% # Number of branches that got squashed (completely removed) as an earlier branch was mispredicted. (Count)
system.cpu.branchPred.squashes_0::Return      1230172     17.87%     17.90% # Number of branches that got squashed (completely removed) as an earlier branch was mispredicted. (Count)
system.cpu.branchPred.squashes_0::CallDirect      1031420     14.99%     32.88% # Number of branches that got squashed (completely removed) as an earlier branch was mispredicted. (Count)
system.cpu.branchPred.squashes_0::CallIndirect          756      0.01%     32.89% # Number of branches that got squashed (completely removed) as an earlier branch was mispredicted. (Count)
system.cpu.branchPred.squashes_0::DirectCond      4401682     63.95%     96.85% # Number of branches that got squashed (completely removed) as an earlier branch was mispredicted. (Count)
system.cpu.branchPred.squashes_0::DirectUncond       211432      3.07%     99.92% # Number of branches that got squashed (completely removed) as an earlier branch was mispredicted. (Count)
system.cpu.branchPred.squashes_0::IndirectCond            0      0.00%     99.92% # Number of branches that got squashed (completely removed) as an earlier branch was mispredicted. (Count)
system.cpu.branchPred.squashes_0::IndirectUncond         5554      0.08%    100.00% # Number of branches that got squashed (completely removed) as an earlier branch was mispredicted. (Count)
system.cpu.branchPred.squashes_0::total       6882599                       # Number of branches that got squashed (completely removed) as an earlier branch was mispredicted. (Count)
system.cpu.branchPred.corrected_0::NoBranch          439      0.10%      0.10% # Number of branches that got corrected but not yet commited. Branches get corrected by decode or after execute. Also a branch misprediction can be detected out-of-order. Therefore, a corrected branch might not end up beeing committed in case an even earlier branch was mispredicted (Count)
system.cpu.branchPred.corrected_0::Return           13      0.00%      0.11% # Number of branches that got corrected but not yet commited. Branches get corrected by decode or after execute. Also a branch misprediction can be detected out-of-order. Therefore, a corrected branch might not end up beeing committed in case an even earlier branch was mispredicted (Count)
system.cpu.branchPred.corrected_0::CallDirect          809      0.19%      0.30% # Number of branches that got corrected but not yet commited. Branches get corrected by decode or after execute. Also a branch misprediction can be detected out-of-order. Therefore, a corrected branch might not end up beeing committed in case an even earlier branch was mispredicted (Count)
system.cpu.branchPred.corrected_0::CallIndirect          242      0.06%      0.35% # Number of branches that got corrected but not yet commited. Branches get corrected by decode or after execute. Also a branch misprediction can be detected out-of-order. Therefore, a corrected branch might not end up beeing committed in case an even earlier branch was mispredicted (Count)
system.cpu.branchPred.corrected_0::DirectCond       422665     99.25%     99.60% # Number of branches that got corrected but not yet commited. Branches get corrected by decode or after execute. Also a branch misprediction can be detected out-of-order. Therefore, a corrected branch might not end up beeing committed in case an even earlier branch was mispredicted (Count)
system.cpu.branchPred.corrected_0::DirectUncond          589      0.14%     99.74% # Number of branches that got corrected but not yet commited. Branches get corrected by decode or after execute. Also a branch misprediction can be detected out-of-order. Therefore, a corrected branch might not end up beeing committed in case an even earlier branch was mispredicted (Count)
system.cpu.branchPred.corrected_0::IndirectCond            0      0.00%     99.74% # Number of branches that got corrected but not yet commited. Branches get corrected by decode or after execute. Also a branch misprediction can be detected out-of-order. Therefore, a corrected branch might not end up beeing committed in case an even earlier branch was mispredicted (Count)
system.cpu.branchPred.corrected_0::IndirectUncond         1123      0.26%    100.00% # Number of branches that got corrected but not yet commited. Branches get corrected by decode or after execute. Also a branch misprediction can be detected out-of-order. Therefore, a corrected branch might not end up beeing committed in case an even earlier branch was mispredicted (Count)
system.cpu.branchPred.corrected_0::total       425880                       # Number of branches that got corrected but not yet commited. Branches get corrected by decode or after execute. Also a branch misprediction can be detected out-of-order. Therefore, a corrected branch might not end up beeing committed in case an even earlier branch was mispredicted (Count)
system.cpu.branchPred.earlyResteers_0::NoBranch            0                       # Number of branches that got redirected after decode. (Count)
system.cpu.branchPred.earlyResteers_0::Return            0                       # Number of branches that got redirected after decode. (Count)
system.cpu.branchPred.earlyResteers_0::CallDirect            0                       # Number of branches that got redirected after decode. (Count)
system.cpu.branchPred.earlyResteers_0::CallIndirect            0                       # Number of branches that got redirected after decode. (Count)
system.cpu.branchPred.earlyResteers_0::DirectCond            0                       # Number of branches that got redirected after decode. (Count)
system.cpu.branchPred.earlyResteers_0::DirectUncond            0                       # Number of branches that got redirected after decode. (Count)
system.cpu.branchPred.earlyResteers_0::IndirectCond            0                       # Number of branches that got redirected after decode. (Count)
system.cpu.branchPred.earlyResteers_0::IndirectUncond            0                       # Number of branches that got redirected after decode. (Count)
system.cpu.branchPred.earlyResteers_0::total            0                       # Number of branches that got redirected after decode. (Count)
system.cpu.branchPred.committed_0::NoBranch          281      0.00%      0.00% # Number of branches finally committed  (Count)
system.cpu.branchPred.committed_0::Return      2260481      9.15%      9.15% # Number of branches finally committed  (Count)
system.cpu.branchPred.committed_0::CallDirect      2259883      9.14%     18.29% # Number of branches finally committed  (Count)
system.cpu.branchPred.committed_0::CallIndirect          603      0.00%     18.30% # Number of branches finally committed  (Count)
system.cpu.branchPred.committed_0::DirectCond     19354229     78.32%     96.61% # Number of branches finally committed  (Count)
system.cpu.branchPred.committed_0::DirectUncond       219183      0.89%     97.50% # Number of branches finally committed  (Count)
system.cpu.branchPred.committed_0::IndirectCond            0      0.00%     97.50% # Number of branches finally committed  (Count)
system.cpu.branchPred.committed_0::IndirectUncond       618316      2.50%    100.00% # Number of branches finally committed  (Count)
system.cpu.branchPred.committed_0::total     24712976                       # Number of branches finally committed  (Count)
system.cpu.branchPred.mispredicted_0::NoBranch          281      0.13%      0.13% # Number of committed branches that were mispredicted. (Count)
system.cpu.branchPred.mispredicted_0::Return            0      0.00%      0.13% # Number of committed branches that were mispredicted. (Count)
system.cpu.branchPred.mispredicted_0::CallDirect          498      0.23%      0.36% # Number of committed branches that were mispredicted. (Count)
system.cpu.branchPred.mispredicted_0::CallIndirect          215      0.10%      0.45% # Number of committed branches that were mispredicted. (Count)
system.cpu.branchPred.mispredicted_0::DirectCond       216088     98.90%     99.36% # Number of committed branches that were mispredicted. (Count)
system.cpu.branchPred.mispredicted_0::DirectUncond          345      0.16%     99.51% # Number of committed branches that were mispredicted. (Count)
system.cpu.branchPred.mispredicted_0::IndirectCond            0      0.00%     99.51% # Number of committed branches that were mispredicted. (Count)
system.cpu.branchPred.mispredicted_0::IndirectUncond         1064      0.49%    100.00% # Number of committed branches that were mispredicted. (Count)
system.cpu.branchPred.mispredicted_0::total       218491                       # Number of committed branches that were mispredicted. (Count)
system.cpu.branchPred.targetProvider_0::NoTarget      7783329     24.63%     24.63% # The component providing the target for taken branches (Count)
system.cpu.branchPred.targetProvider_0::BTB     19702867     62.36%     86.99% # The component providing the target for taken branches (Count)
system.cpu.branchPred.targetProvider_0::RAS      3490653     11.05%     98.04% # The component providing the target for taken branches (Count)
system.cpu.branchPred.targetProvider_0::Indirect       618735      1.96%    100.00% # The component providing the target for taken branches (Count)
system.cpu.branchPred.targetProvider_0::total     31595584                       # The component providing the target for taken branches (Count)
system.cpu.branchPred.targetWrong_0::NoBranch         8101      1.91%      1.91% # Number of branches where the target was incorrect or not available at prediction time. (Count)
system.cpu.branchPred.targetWrong_0::Return       415521     98.05%     99.97% # Number of branches where the target was incorrect or not available at prediction time. (Count)
system.cpu.branchPred.targetWrong_0::CallDirect           13      0.00%     99.97% # Number of branches where the target was incorrect or not available at prediction time. (Count)
system.cpu.branchPred.targetWrong_0::CallIndirect          135      0.03%    100.00% # Number of branches where the target was incorrect or not available at prediction time. (Count)
system.cpu.branchPred.targetWrong_0::DirectCond            0      0.00%    100.00% # Number of branches where the target was incorrect or not available at prediction time. (Count)
system.cpu.branchPred.targetWrong_0::DirectUncond            0      0.00%    100.00% # Number of branches where the target was incorrect or not available at prediction time. (Count)
system.cpu.branchPred.targetWrong_0::IndirectCond            0      0.00%    100.00% # Number of branches where the target was incorrect or not available at prediction time. (Count)
system.cpu.branchPred.targetWrong_0::IndirectUncond            0      0.00%    100.00% # Number of branches where the target was incorrect or not available at prediction time. (Count)
system.cpu.branchPred.targetWrong_0::total       423770                       # Number of branches where the target was incorrect or not available at prediction time. (Count)
system.cpu.branchPred.condPredicted          23757782                       # Number of conditional branches predicted (Count)
system.cpu.branchPred.condPredictedTaken     16190017                       # Number of conditional branches predicted as taken (Count)
system.cpu.branchPred.condIncorrect            425880                       # Number of conditional branches incorrect (Count)
system.cpu.branchPred.predTakenBTBMiss           1708                       # Number of branches predicted taken but missed in BTB (Count)
system.cpu.branchPred.NotTakenMispredicted         9727                       # Number branches predicted 'not taken' but turned out to be taken (Count)
system.cpu.branchPred.TakenMispredicted        416153                       # Number branches predicted taken but are actually not taken (Count)
system.cpu.branchPred.BTBLookups             31595584                       # Number of BTB lookups (Count)
system.cpu.branchPred.BTBUpdates                 7910                       # Number of BTB updates (Count)
system.cpu.branchPred.BTBHits                20810167                       # Number of BTB hits (Count)
system.cpu.branchPred.BTBHitRatio            0.658642                       # BTB Hit Ratio (Ratio)
system.cpu.branchPred.BTBMispredicted            2549                       # Number BTB mispredictions. No target found or target wrong (Count)
system.cpu.branchPred.indirectLookups          625229                       # Number of indirect predictor lookups. (Count)
system.cpu.branchPred.indirectHits             618735                       # Number of indirect target hits. (Count)
system.cpu.branchPred.indirectMisses             6494                       # Number of indirect misses. (Count)
system.cpu.branchPred.indirectMispredicted            0                       # Number of mispredicted indirect branches. (Count)
system.cpu.branchPred.btb.lookups::NoBranch         1864      0.01%      0.01% # Number of BTB lookups (Count)
system.cpu.branchPred.btb.lookups::Return      3490654     11.05%     11.05% # Number of BTB lookups (Count)
system.cpu.branchPred.btb.lookups::CallDirect      3291304     10.42%     21.47% # Number of BTB lookups (Count)
system.cpu.branchPred.btb.lookups::CallIndirect         1359      0.00%     21.48% # Number of BTB lookups (Count)
system.cpu.branchPred.btb.lookups::DirectCond     23755918     75.19%     96.66% # Number of BTB lookups (Count)
system.cpu.branchPred.btb.lookups::DirectUncond       430615      1.36%     98.03% # Number of BTB lookups (Count)
system.cpu.branchPred.btb.lookups::IndirectCond            0      0.00%     98.03% # Number of BTB lookups (Count)
system.cpu.branchPred.btb.lookups::IndirectUncond       623870      1.97%    100.00% # Number of BTB lookups (Count)
system.cpu.branchPred.btb.lookups::total     31595584                       # Number of BTB lookups (Count)
system.cpu.branchPred.btb.misses::NoBranch          380      0.00%      0.00% # Number of BTB misses (Count)
system.cpu.branchPred.btb.misses::Return      3490654     32.36%     32.37% # Number of BTB misses (Count)
system.cpu.branchPred.btb.misses::CallDirect         1262      0.01%     32.38% # Number of BTB misses (Count)
system.cpu.branchPred.btb.misses::CallIndirect         1359      0.01%     32.39% # Number of BTB misses (Count)
system.cpu.branchPred.btb.misses::DirectCond      6666978     61.81%     94.21% # Number of BTB misses (Count)
system.cpu.branchPred.btb.misses::DirectUncond          914      0.01%     94.22% # Number of BTB misses (Count)
system.cpu.branchPred.btb.misses::IndirectCond            0      0.00%     94.22% # Number of BTB misses (Count)
system.cpu.branchPred.btb.misses::IndirectUncond       623870      5.78%    100.00% # Number of BTB misses (Count)
system.cpu.branchPred.btb.misses::total      10785417                       # Number of BTB misses (Count)
system.cpu.branchPred.btb.updates::NoBranch            0      0.00%      0.00% # Number of BTB updates (Count)
system.cpu.branchPred.btb.updates::Return            0      0.00%      0.00% # Number of BTB updates (Count)
system.cpu.branchPred.btb.updates::CallDirect          809     10.23%     10.23% # Number of BTB updates (Count)
system.cpu.branchPred.btb.updates::CallIndirect            0      0.00%     10.23% # Number of BTB updates (Count)
system.cpu.branchPred.btb.updates::DirectCond         6512     82.33%     92.55% # Number of BTB updates (Count)
system.cpu.branchPred.btb.updates::DirectUncond          589      7.45%    100.00% # Number of BTB updates (Count)
system.cpu.branchPred.btb.updates::IndirectCond            0      0.00%    100.00% # Number of BTB updates (Count)
system.cpu.branchPred.btb.updates::IndirectUncond            0      0.00%    100.00% # Number of BTB updates (Count)
system.cpu.branchPred.btb.updates::total         7910                       # Number of BTB updates (Count)
system.cpu.branchPred.btb.mispredict::NoBranch            0      0.00%      0.00% # Number of BTB mispredictions. No target found or target wrong. (Count)
system.cpu.branchPred.btb.mispredict::Return            0      0.00%      0.00% # Number of BTB mispredictions. No target found or target wrong. (Count)
system.cpu.branchPred.btb.mispredict::CallDirect          809     10.23%     10.23% # Number of BTB mispredictions. No target found or target wrong. (Count)
system.cpu.branchPred.btb.mispredict::CallIndirect            0      0.00%     10.23% # Number of BTB mispredictions. No target found or target wrong. (Count)
system.cpu.branchPred.btb.mispredict::DirectCond         6512     82.33%     92.55% # Number of BTB mispredictions. No target found or target wrong. (Count)
system.cpu.branchPred.btb.mispredict::DirectUncond          589      7.45%    100.00% # Number of BTB mispredictions. No target found or target wrong. (Count)
system.cpu.branchPred.btb.mispredict::IndirectCond            0      0.00%    100.00% # Number of BTB mispredictions. No target found or target wrong. (Count)
system.cpu.branchPred.btb.mispredict::IndirectUncond            0      0.00%    100.00% # Number of BTB mispredictions. No target found or target wrong. (Count)
system.cpu.branchPred.btb.mispredict::total         7910                       # Number of BTB mispredictions. No target found or target wrong. (Count)
system.cpu.branchPred.btb.power_state.pwrStateResidencyTicks::UNDEFINED 1021088632146                       # Cumulative time (in ticks) in various power states (Tick)
system.cpu.branchPred.indirectBranchPred.lookups       625229                       # Number of lookups (Count)
system.cpu.branchPred.indirectBranchPred.hits       618735                       # Number of hits of a tag (Count)
system.cpu.branchPred.indirectBranchPred.misses         6494                       # Number of misses (Count)
system.cpu.branchPred.indirectBranchPred.targetRecords         1365                       # Number of targets that where recorded/installed in the cache (Count)
system.cpu.branchPred.indirectBranchPred.indirectRecords       626594                       # Number of indirect branches/calls recorded in the indirect hist (Count)
system.cpu.branchPred.indirectBranchPred.speculativeOverflows            1                       # Number of times more than the allowed capacity for speculative branches/calls where in flight and destroy the path history (Count)
system.cpu.branchPred.ras.pushes              4522835                       # Number of times a PC was pushed onto the RAS (Count)
system.cpu.branchPred.ras.pops                4522830                       # Number of times a PC was poped from the RAS (Count)
system.cpu.branchPred.ras.squashes            2262348                       # Number of times the stack operation was squashed due to wrong speculation. (Count)
system.cpu.branchPred.ras.used                2260481                       # Number of times the RAS is the provider (Count)
system.cpu.branchPred.ras.correct             2260481                       # Number of times the RAS is the provider and the prediction is correct (Count)
system.cpu.branchPred.ras.incorrect                 0                       # Number of times the RAS is the provider and the prediction is wrong (Count)
system.cpu.commit.commitSquashedInsts        35432145                       # The number of squashed insts skipped by commit (Count)
system.cpu.commit.commitNonSpecStalls            2219                       # The number of times commit has been forced to stall to communicate backwards (Count)
system.cpu.commit.branchMispredicts            424529                       # The number of times a branch was mispredicted (Count)
system.cpu.commit.numCommittedDist::samples     71544644                       # Number of insts commited each cycle (Count)
system.cpu.commit.numCommittedDist::mean     3.809182                       # Number of insts commited each cycle (Count)
system.cpu.commit.numCommittedDist::stdev     3.398681                       # Number of insts commited each cycle (Count)
system.cpu.commit.numCommittedDist::underflows            0      0.00%      0.00% # Number of insts commited each cycle (Count)
system.cpu.commit.numCommittedDist::0         7035816      9.83%      9.83% # Number of insts commited each cycle (Count)
system.cpu.commit.numCommittedDist::1        29891510     41.78%     51.61% # Number of insts commited each cycle (Count)
system.cpu.commit.numCommittedDist::2         1715653      2.40%     54.01% # Number of insts commited each cycle (Count)
system.cpu.commit.numCommittedDist::3         3221752      4.50%     58.52% # Number of insts commited each cycle (Count)
system.cpu.commit.numCommittedDist::4         1058628      1.48%     60.00% # Number of insts commited each cycle (Count)
system.cpu.commit.numCommittedDist::5          635060      0.89%     60.88% # Number of insts commited each cycle (Count)
system.cpu.commit.numCommittedDist::6          625816      0.87%     61.76% # Number of insts commited each cycle (Count)
system.cpu.commit.numCommittedDist::7          509479      0.71%     62.47% # Number of insts commited each cycle (Count)
system.cpu.commit.numCommittedDist::8        26850930     37.53%    100.00% # Number of insts commited each cycle (Count)
system.cpu.commit.numCommittedDist::overflows            0      0.00%    100.00% # Number of insts commited each cycle (Count)
system.cpu.commit.numCommittedDist::min_value            0                       # Number of insts commited each cycle (Count)
system.cpu.commit.numCommittedDist::max_value            8                       # Number of insts commited each cycle (Count)
system.cpu.commit.numCommittedDist::total     71544644                       # Number of insts commited each cycle (Count)
system.cpu.commit.amos                              0                       # Number of atomic instructions committed (Count)
system.cpu.commit.membars                        1010                       # Number of memory barriers committed (Count)
system.cpu.commit.functionCalls               2260486                       # Number of function calls committed. (Count)
system.cpu.commit.committedInstType_0::No_OpClass      2672676      0.98%      0.98% # Class of committed instruction (Count)
system.cpu.commit.committedInstType_0::IntAlu    189474446     69.53%     70.51% # Class of committed instruction (Count)
system.cpu.commit.committedInstType_0::IntMult       408828      0.15%     70.66% # Class of committed instruction (Count)
system.cpu.commit.committedInstType_0::IntDiv        38794      0.01%     70.67% # Class of committed instruction (Count)
system.cpu.commit.committedInstType_0::FloatAdd       824553      0.30%     70.97% # Class of committed instruction (Count)
system.cpu.commit.committedInstType_0::FloatCmp            0      0.00%     70.97% # Class of committed instruction (Count)
system.cpu.commit.committedInstType_0::FloatCvt         1232      0.00%     70.97% # Class of committed instruction (Count)
system.cpu.commit.committedInstType_0::FloatMult            0      0.00%     70.97% # Class of committed instruction (Count)
system.cpu.commit.committedInstType_0::FloatMultAcc            0      0.00%     70.97% # Class of committed instruction (Count)
system.cpu.commit.committedInstType_0::FloatDiv            0      0.00%     70.97% # Class of committed instruction (Count)
system.cpu.commit.committedInstType_0::FloatMisc            0      0.00%     70.97% # Class of committed instruction (Count)
system.cpu.commit.committedInstType_0::FloatSqrt            0      0.00%     70.97% # Class of committed instruction (Count)
system.cpu.commit.committedInstType_0::SimdAdd         6510      0.00%     70.98% # Class of committed instruction (Count)
system.cpu.commit.committedInstType_0::SimdAddAcc            0      0.00%     70.98% # Class of committed instruction (Count)
system.cpu.commit.committedInstType_0::SimdAlu       421924      0.15%     71.13% # Class of committed instruction (Count)
system.cpu.commit.committedInstType_0::SimdCmp            6      0.00%     71.13% # Class of committed instruction (Count)
system.cpu.commit.committedInstType_0::SimdCvt        13504      0.00%     71.14% # Class of committed instruction (Count)
system.cpu.commit.committedInstType_0::SimdMisc      1852663      0.68%     71.82% # Class of committed instruction (Count)
system.cpu.commit.committedInstType_0::SimdMult            0      0.00%     71.82% # Class of committed instruction (Count)
system.cpu.commit.committedInstType_0::SimdMultAcc            0      0.00%     71.82% # Class of committed instruction (Count)
system.cpu.commit.committedInstType_0::SimdMatMultAcc            0      0.00%     71.82% # Class of committed instruction (Count)
system.cpu.commit.committedInstType_0::SimdShift         1931      0.00%     71.82% # Class of committed instruction (Count)
system.cpu.commit.committedInstType_0::SimdShiftAcc            0      0.00%     71.82% # Class of committed instruction (Count)
system.cpu.commit.committedInstType_0::SimdDiv            0      0.00%     71.82% # Class of committed instruction (Count)
system.cpu.commit.committedInstType_0::SimdSqrt            0      0.00%     71.82% # Class of committed instruction (Count)
system.cpu.commit.committedInstType_0::SimdFloatAdd       204364      0.07%     71.89% # Class of committed instruction (Count)
system.cpu.commit.committedInstType_0::SimdFloatAlu            0      0.00%     71.89% # Class of committed instruction (Count)
system.cpu.commit.committedInstType_0::SimdFloatCmp            0      0.00%     71.89% # Class of committed instruction (Count)
system.cpu.commit.committedInstType_0::SimdFloatCvt       408728      0.15%     72.04% # Class of committed instruction (Count)
system.cpu.commit.committedInstType_0::SimdFloatDiv       204364      0.07%     72.12% # Class of committed instruction (Count)
system.cpu.commit.committedInstType_0::SimdFloatMisc            0      0.00%     72.12% # Class of committed instruction (Count)
system.cpu.commit.committedInstType_0::SimdFloatMult            0      0.00%     72.12% # Class of committed instruction (Count)
system.cpu.commit.committedInstType_0::SimdFloatMultAcc            0      0.00%     72.12% # Class of committed instruction (Count)
system.cpu.commit.committedInstType_0::SimdFloatMatMultAcc            0      0.00%     72.12% # Class of committed instruction (Count)
system.cpu.commit.committedInstType_0::SimdFloatSqrt            0      0.00%     72.12% # Class of committed instruction (Count)
system.cpu.commit.committedInstType_0::SimdReduceAdd            0      0.00%     72.12% # Class of committed instruction (Count)
system.cpu.commit.committedInstType_0::SimdReduceAlu            0      0.00%     72.12% # Class of committed instruction (Count)
system.cpu.commit.committedInstType_0::SimdReduceCmp            0      0.00%     72.12% # Class of committed instruction (Count)
system.cpu.commit.committedInstType_0::SimdFloatReduceAdd            0      0.00%     72.12% # Class of committed instruction (Count)
system.cpu.commit.committedInstType_0::SimdFloatReduceCmp            0      0.00%     72.12% # Class of committed instruction (Count)
system.cpu.commit.committedInstType_0::SimdAes            0      0.00%     72.12% # Class of committed instruction (Count)
system.cpu.commit.committedInstType_0::SimdAesMix            0      0.00%     72.12% # Class of committed instruction (Count)
system.cpu.commit.committedInstType_0::SimdSha1Hash            0      0.00%     72.12% # Class of committed instruction (Count)
system.cpu.commit.committedInstType_0::SimdSha1Hash2            0      0.00%     72.12% # Class of committed instruction (Count)
system.cpu.commit.committedInstType_0::SimdSha256Hash            0      0.00%     72.12% # Class of committed instruction (Count)
system.cpu.commit.committedInstType_0::SimdSha256Hash2            0      0.00%     72.12% # Class of committed instruction (Count)
system.cpu.commit.committedInstType_0::SimdShaSigma2            0      0.00%     72.12% # Class of committed instruction (Count)
system.cpu.commit.committedInstType_0::SimdShaSigma3            0      0.00%     72.12% # Class of committed instruction (Count)
system.cpu.commit.committedInstType_0::SimdPredAlu            0      0.00%     72.12% # Class of committed instruction (Count)
system.cpu.commit.committedInstType_0::Matrix            0      0.00%     72.12% # Class of committed instruction (Count)
system.cpu.commit.committedInstType_0::MatrixMov            0      0.00%     72.12% # Class of committed instruction (Count)
system.cpu.commit.committedInstType_0::MatrixOP            0      0.00%     72.12% # Class of committed instruction (Count)
system.cpu.commit.committedInstType_0::MemRead     49368975     18.12%     90.23% # Class of committed instruction (Count)
system.cpu.commit.committedInstType_0::MemWrite     25569323      9.38%     99.61% # Class of committed instruction (Count)
system.cpu.commit.committedInstType_0::FloatMemRead       834707      0.31%     99.92% # Class of committed instruction (Count)
system.cpu.commit.committedInstType_0::FloatMemWrite       219045      0.08%    100.00% # Class of committed instruction (Count)
system.cpu.commit.committedInstType_0::IprAccess            0      0.00%    100.00% # Class of committed instruction (Count)
system.cpu.commit.committedInstType_0::InstPrefetch            0      0.00%    100.00% # Class of committed instruction (Count)
system.cpu.commit.committedInstType_0::SimdUnitStrideLoad            0      0.00%    100.00% # Class of committed instruction (Count)
system.cpu.commit.committedInstType_0::SimdUnitStrideStore            0      0.00%    100.00% # Class of committed instruction (Count)
system.cpu.commit.committedInstType_0::SimdUnitStrideMaskLoad            0      0.00%    100.00% # Class of committed instruction (Count)
system.cpu.commit.committedInstType_0::SimdUnitStrideMaskStore            0      0.00%    100.00% # Class of committed instruction (Count)
system.cpu.commit.committedInstType_0::SimdStridedLoad            0      0.00%    100.00% # Class of committed instruction (Count)
system.cpu.commit.committedInstType_0::SimdStridedStore            0      0.00%    100.00% # Class of committed instruction (Count)
system.cpu.commit.committedInstType_0::SimdIndexedLoad            0      0.00%    100.00% # Class of committed instruction (Count)
system.cpu.commit.committedInstType_0::SimdIndexedStore            0      0.00%    100.00% # Class of committed instruction (Count)
system.cpu.commit.committedInstType_0::SimdWholeRegisterLoad            0      0.00%    100.00% # Class of committed instruction (Count)
system.cpu.commit.committedInstType_0::SimdWholeRegisterStore            0      0.00%    100.00% # Class of committed instruction (Count)
system.cpu.commit.committedInstType_0::SimdUnitStrideFaultOnlyFirstLoad            0      0.00%    100.00% # Class of committed instruction (Count)
system.cpu.commit.committedInstType_0::SimdUnitStrideSegmentedLoad            0      0.00%    100.00% # Class of committed instruction (Count)
system.cpu.commit.committedInstType_0::SimdUnitStrideSegmentedStore            0      0.00%    100.00% # Class of committed instruction (Count)
system.cpu.commit.committedInstType_0::SimdExt            0      0.00%    100.00% # Class of committed instruction (Count)
system.cpu.commit.committedInstType_0::SimdFloatExt            0      0.00%    100.00% # Class of committed instruction (Count)
system.cpu.commit.committedInstType_0::SimdConfig            0      0.00%    100.00% # Class of committed instruction (Count)
system.cpu.commit.committedInstType_0::total    272526573                       # Class of committed instruction (Count)
system.cpu.commit.commitEligibleSamples      26850930                       # number cycles where commit BW limit reached (Cycle)
system.cpu.commitStats0.numInsts            137517863                       # Number of instructions committed (thread level) (Count)
system.cpu.commitStats0.numOps              272526573                       # Number of ops (including micro ops) committed (thread level) (Count)
system.cpu.commitStats0.numInstsNotNOP      137517863                       # Number of instructions committed excluding NOPs or prefetches (Count)
system.cpu.commitStats0.numOpsNotNOP        272526573                       # Number of Ops (including micro ops) Simulated (Count)
system.cpu.commitStats0.cpi                  0.556899                       # CPI: cycles per instruction (thread level) ((Cycle/Count))
system.cpu.commitStats0.ipc                  1.795658                       # IPC: instructions per cycle (thread level) ((Count/Cycle))
system.cpu.commitStats0.numMemRefs           75992050                       # Number of memory references committed (Count)
system.cpu.commitStats0.numFpInsts            5201725                       # Number of float instructions (Count)
system.cpu.commitStats0.numIntInsts         266320305                       # Number of integer instructions (Count)
system.cpu.commitStats0.numLoadInsts         50203682                       # Number of load instructions (Count)
system.cpu.commitStats0.numStoreInsts        25788368                       # Number of store instructions (Count)
system.cpu.commitStats0.numVecInsts                 0                       # Number of vector instructions (Count)
system.cpu.commitStats0.committedInstType::No_OpClass      2672676      0.98%      0.98% # Class of committed instruction. (Count)
system.cpu.commitStats0.committedInstType::IntAlu    189474446     69.53%     70.51% # Class of committed instruction. (Count)
system.cpu.commitStats0.committedInstType::IntMult       408828      0.15%     70.66% # Class of committed instruction. (Count)
system.cpu.commitStats0.committedInstType::IntDiv        38794      0.01%     70.67% # Class of committed instruction. (Count)
system.cpu.commitStats0.committedInstType::FloatAdd       824553      0.30%     70.97% # Class of committed instruction. (Count)
system.cpu.commitStats0.committedInstType::FloatCmp            0      0.00%     70.97% # Class of committed instruction. (Count)
system.cpu.commitStats0.committedInstType::FloatCvt         1232      0.00%     70.97% # Class of committed instruction. (Count)
system.cpu.commitStats0.committedInstType::FloatMult            0      0.00%     70.97% # Class of committed instruction. (Count)
system.cpu.commitStats0.committedInstType::FloatMultAcc            0      0.00%     70.97% # Class of committed instruction. (Count)
system.cpu.commitStats0.committedInstType::FloatDiv            0      0.00%     70.97% # Class of committed instruction. (Count)
system.cpu.commitStats0.committedInstType::FloatMisc            0      0.00%     70.97% # Class of committed instruction. (Count)
system.cpu.commitStats0.committedInstType::FloatSqrt            0      0.00%     70.97% # Class of committed instruction. (Count)
system.cpu.commitStats0.committedInstType::SimdAdd         6510      0.00%     70.98% # Class of committed instruction. (Count)
system.cpu.commitStats0.committedInstType::SimdAddAcc            0      0.00%     70.98% # Class of committed instruction. (Count)
system.cpu.commitStats0.committedInstType::SimdAlu       421924      0.15%     71.13% # Class of committed instruction. (Count)
system.cpu.commitStats0.committedInstType::SimdCmp            6      0.00%     71.13% # Class of committed instruction. (Count)
system.cpu.commitStats0.committedInstType::SimdCvt        13504      0.00%     71.14% # Class of committed instruction. (Count)
system.cpu.commitStats0.committedInstType::SimdMisc      1852663      0.68%     71.82% # Class of committed instruction. (Count)
system.cpu.commitStats0.committedInstType::SimdMult            0      0.00%     71.82% # Class of committed instruction. (Count)
system.cpu.commitStats0.committedInstType::SimdMultAcc            0      0.00%     71.82% # Class of committed instruction. (Count)
system.cpu.commitStats0.committedInstType::SimdMatMultAcc            0      0.00%     71.82% # Class of committed instruction. (Count)
system.cpu.commitStats0.committedInstType::SimdShift         1931      0.00%     71.82% # Class of committed instruction. (Count)
system.cpu.commitStats0.committedInstType::SimdShiftAcc            0      0.00%     71.82% # Class of committed instruction. (Count)
system.cpu.commitStats0.committedInstType::SimdDiv            0      0.00%     71.82% # Class of committed instruction. (Count)
system.cpu.commitStats0.committedInstType::SimdSqrt            0      0.00%     71.82% # Class of committed instruction. (Count)
system.cpu.commitStats0.committedInstType::SimdFloatAdd       204364      0.07%     71.89% # Class of committed instruction. (Count)
system.cpu.commitStats0.committedInstType::SimdFloatAlu            0      0.00%     71.89% # Class of committed instruction. (Count)
system.cpu.commitStats0.committedInstType::SimdFloatCmp            0      0.00%     71.89% # Class of committed instruction. (Count)
system.cpu.commitStats0.committedInstType::SimdFloatCvt       408728      0.15%     72.04% # Class of committed instruction. (Count)
system.cpu.commitStats0.committedInstType::SimdFloatDiv       204364      0.07%     72.12% # Class of committed instruction. (Count)
system.cpu.commitStats0.committedInstType::SimdFloatMisc            0      0.00%     72.12% # Class of committed instruction. (Count)
system.cpu.commitStats0.committedInstType::SimdFloatMult            0      0.00%     72.12% # Class of committed instruction. (Count)
system.cpu.commitStats0.committedInstType::SimdFloatMultAcc            0      0.00%     72.12% # Class of committed instruction. (Count)
system.cpu.commitStats0.committedInstType::SimdFloatMatMultAcc            0      0.00%     72.12% # Class of committed instruction. (Count)
system.cpu.commitStats0.committedInstType::SimdFloatSqrt            0      0.00%     72.12% # Class of committed instruction. (Count)
system.cpu.commitStats0.committedInstType::SimdReduceAdd            0      0.00%     72.12% # Class of committed instruction. (Count)
system.cpu.commitStats0.committedInstType::SimdReduceAlu            0      0.00%     72.12% # Class of committed instruction. (Count)
system.cpu.commitStats0.committedInstType::SimdReduceCmp            0      0.00%     72.12% # Class of committed instruction. (Count)
system.cpu.commitStats0.committedInstType::SimdFloatReduceAdd            0      0.00%     72.12% # Class of committed instruction. (Count)
system.cpu.commitStats0.committedInstType::SimdFloatReduceCmp            0      0.00%     72.12% # Class of committed instruction. (Count)
system.cpu.commitStats0.committedInstType::SimdAes            0      0.00%     72.12% # Class of committed instruction. (Count)
system.cpu.commitStats0.committedInstType::SimdAesMix            0      0.00%     72.12% # Class of committed instruction. (Count)
system.cpu.commitStats0.committedInstType::SimdSha1Hash            0      0.00%     72.12% # Class of committed instruction. (Count)
system.cpu.commitStats0.committedInstType::SimdSha1Hash2            0      0.00%     72.12% # Class of committed instruction. (Count)
system.cpu.commitStats0.committedInstType::SimdSha256Hash            0      0.00%     72.12% # Class of committed instruction. (Count)
system.cpu.commitStats0.committedInstType::SimdSha256Hash2            0      0.00%     72.12% # Class of committed instruction. (Count)
system.cpu.commitStats0.committedInstType::SimdShaSigma2            0      0.00%     72.12% # Class of committed instruction. (Count)
system.cpu.commitStats0.committedInstType::SimdShaSigma3            0      0.00%     72.12% # Class of committed instruction. (Count)
system.cpu.commitStats0.committedInstType::SimdPredAlu            0      0.00%     72.12% # Class of committed instruction. (Count)
system.cpu.commitStats0.committedInstType::Matrix            0      0.00%     72.12% # Class of committed instruction. (Count)
system.cpu.commitStats0.committedInstType::MatrixMov            0      0.00%     72.12% # Class of committed instruction. (Count)
system.cpu.commitStats0.committedInstType::MatrixOP            0      0.00%     72.12% # Class of committed instruction. (Count)
system.cpu.commitStats0.committedInstType::MemRead     49368975     18.12%     90.23% # Class of committed instruction. (Count)
system.cpu.commitStats0.committedInstType::MemWrite     25569323      9.38%     99.61% # Class of committed instruction. (Count)
system.cpu.commitStats0.committedInstType::FloatMemRead       834707      0.31%     99.92% # Class of committed instruction. (Count)
system.cpu.commitStats0.committedInstType::FloatMemWrite       219045      0.08%    100.00% # Class of committed instruction. (Count)
system.cpu.commitStats0.committedInstType::IprAccess            0      0.00%    100.00% # Class of committed instruction. (Count)
system.cpu.commitStats0.committedInstType::InstPrefetch            0      0.00%    100.00% # Class of committed instruction. (Count)
system.cpu.commitStats0.committedInstType::SimdUnitStrideLoad            0      0.00%    100.00% # Class of committed instruction. (Count)
system.cpu.commitStats0.committedInstType::SimdUnitStrideStore            0      0.00%    100.00% # Class of committed instruction. (Count)
system.cpu.commitStats0.committedInstType::SimdUnitStrideMaskLoad            0      0.00%    100.00% # Class of committed instruction. (Count)
system.cpu.commitStats0.committedInstType::SimdUnitStrideMaskStore            0      0.00%    100.00% # Class of committed instruction. (Count)
system.cpu.commitStats0.committedInstType::SimdStridedLoad            0      0.00%    100.00% # Class of committed instruction. (Count)
system.cpu.commitStats0.committedInstType::SimdStridedStore            0      0.00%    100.00% # Class of committed instruction. (Count)
system.cpu.commitStats0.committedInstType::SimdIndexedLoad            0      0.00%    100.00% # Class of committed instruction. (Count)
system.cpu.commitStats0.committedInstType::SimdIndexedStore            0      0.00%    100.00% # Class of committed instruction. (Count)
system.cpu.commitStats0.committedInstType::SimdWholeRegisterLoad            0      0.00%    100.00% # Class of committed instruction. (Count)
system.cpu.commitStats0.committedInstType::SimdWholeRegisterStore            0      0.00%    100.00% # Class of committed instruction. (Count)
system.cpu.commitStats0.committedInstType::SimdUnitStrideFaultOnlyFirstLoad            0      0.00%    100.00% # Class of committed instruction. (Count)
system.cpu.commitStats0.committedInstType::SimdUnitStrideSegmentedLoad            0      0.00%    100.00% # Class of committed instruction. (Count)
system.cpu.commitStats0.committedInstType::SimdUnitStrideSegmentedStore            0      0.00%    100.00% # Class of committed instruction. (Count)
system.cpu.commitStats0.committedInstType::SimdExt            0      0.00%    100.00% # Class of committed instruction. (Count)
system.cpu.commitStats0.committedInstType::SimdFloatExt            0      0.00%    100.00% # Class of committed instruction. (Count)
system.cpu.commitStats0.committedInstType::SimdConfig            0      0.00%    100.00% # Class of committed instruction. (Count)
system.cpu.commitStats0.committedInstType::total    272526573                       # Class of committed instruction. (Count)
system.cpu.commitStats0.committedControl::IsControl     24712976                       # Class of control type instructions committed (Count)
system.cpu.commitStats0.committedControl::IsDirectControl     21833295                       # Class of control type instructions committed (Count)
system.cpu.commitStats0.committedControl::IsIndirectControl      2879400                       # Class of control type instructions committed (Count)
system.cpu.commitStats0.committedControl::IsCondControl     19354229                       # Class of control type instructions committed (Count)
system.cpu.commitStats0.committedControl::IsUncondControl      5358466                       # Class of control type instructions committed (Count)
system.cpu.commitStats0.committedControl::IsCall      2260486                       # Class of control type instructions committed (Count)
system.cpu.commitStats0.committedControl::IsReturn      2260481                       # Class of control type instructions committed (Count)
system.cpu.decode.idleCycles                  5761460                       # Number of cycles decode is idle (Cycle)
system.cpu.decode.blockedCycles              23284122                       # Number of cycles decode is blocked (Cycle)
system.cpu.decode.runCycles                  37484948                       # Number of cycles decode is running (Cycle)
system.cpu.decode.unblockCycles               9420345                       # Number of cycles decode is unblocking (Cycle)
system.cpu.decode.squashCycles                 630229                       # Number of cycles decode is squashing (Cycle)
system.cpu.decode.branchResolved             18256808                       # Number of times decode resolved a branch (Count)
system.cpu.decode.branchMispred                  1578                       # Number of times decode detected a branch misprediction (Count)
system.cpu.decode.decodedInsts              324970549                       # Number of instructions handled by decode (Count)
system.cpu.decode.squashedInsts                  8194                       # Number of squashed instructions handled by decode (Count)
system.cpu.executeStats0.numInsts           314800965                       # Number of executed instructions (Count)
system.cpu.executeStats0.numNop                     0                       # Number of nop insts executed (Count)
system.cpu.executeStats0.numBranches         28633280                       # Number of branches executed (Count)
system.cpu.executeStats0.numLoadInsts        57228969                       # Number of load instructions executed (Count)
system.cpu.executeStats0.numStoreInsts       29108082                       # Number of stores executed (Count)
system.cpu.executeStats0.instRate            4.110555                       # Inst execution rate ((Count/Cycle))
system.cpu.executeStats0.numCCRegReads      115937152                       # Number of times the CC registers were read (Count)
system.cpu.executeStats0.numCCRegWrites     116244217                       # Number of times the CC registers were written (Count)
system.cpu.executeStats0.numFpRegReads       10168648                       # Number of times the floating registers were read (Count)
system.cpu.executeStats0.numFpRegWrites       6832108                       # Number of times the floating registers were written (Count)
system.cpu.executeStats0.numIntRegReads     370317846                       # Number of times the integer registers were read (Count)
system.cpu.executeStats0.numIntRegWrites    226012052                       # Number of times the integer registers were written (Count)
system.cpu.executeStats0.numMemRefs          86337051                       # Number of memory refs (Count)
system.cpu.executeStats0.numMiscRegReads    143621533                       # Number of times the Misc registers were read (Count)
system.cpu.executeStats0.numMiscRegWrites          693                       # Number of times the Misc registers were written (Count)
system.cpu.executeStats0.numVecAluAccesses            0                       # Number of vector alu accesses (Count)
system.cpu.executeStats0.numDiscardedOps            0                       # Number of ops (including micro ops) which were discarded before commit (Count)
system.cpu.fetch.predictedBranches           23812255                       # Number of branches that fetch has predicted taken (Count)
system.cpu.fetch.cycles                      75391646                       # Number of cycles fetch has run and was not squashing or blocked (Cycle)
system.cpu.fetch.squashCycles                 1263522                       # Number of cycles fetch has spent squashing (Cycle)
system.cpu.fetch.miscStallCycles                  228                       # Number of cycles fetch has spent waiting on interrupts, or bad addresses, or out of MSHRs (Cycle)
system.cpu.fetch.pendingTrapStallCycles          2152                       # Number of stall cycles due to pending traps (Cycle)
system.cpu.fetch.cacheLines                  15795572                       # Number of cache lines fetched (Count)
[...]
system.mem_ctrl.dram.bwRead::total          325501361                       # Total read bandwidth from this memory ((Byte/Second))
system.mem_ctrl.dram.bwInstRead::cpu.inst    163066089                       # Instruction read bandwidth from this memory ((Byte/Second))
system.mem_ctrl.dram.bwInstRead::total      163066089                       # Instruction read bandwidth from this memory ((Byte/Second))
system.mem_ctrl.dram.bwWrite::writebacks     43368641                       # Write bandwidth from this memory ((Byte/Second))
system.mem_ctrl.dram.bwWrite::total          43368641                       # Write bandwidth from this memory ((Byte/Second))
system.mem_ctrl.dram.bwTotal::writebacks     43368641                       # Total bandwidth to/from this memory ((Byte/Second))
system.mem_ctrl.dram.bwTotal::cpu.inst      163066089                       # Total bandwidth to/from this memory ((Byte/Second))
system.mem_ctrl.dram.bwTotal::cpu.data      162435272                       # Total bandwidth to/from this memory ((Byte/Second))
system.mem_ctrl.dram.bwTotal::total         368870002                       # Total bandwidth to/from this memory ((Byte/Second))
system.mem_ctrl.dram.readBursts                  3843                       # Number of DRAM read bursts (Count)
system.mem_ctrl.dram.writeBursts                  412                       # Number of DRAM write bursts (Count)
system.mem_ctrl.dram.perBankRdBursts::0           324                       # Per bank write bursts (Count)
system.mem_ctrl.dram.perBankRdBursts::1           210                       # Per bank write bursts (Count)
system.mem_ctrl.dram.perBankRdBursts::2           276                       # Per bank write bursts (Count)
system.mem_ctrl.dram.perBankRdBursts::3           194                       # Per bank write bursts (Count)
system.mem_ctrl.dram.perBankRdBursts::4           472                       # Per bank write bursts (Count)
system.mem_ctrl.dram.perBankRdBursts::5           310                       # Per bank write bursts (Count)
system.mem_ctrl.dram.perBankRdBursts::6           191                       # Per bank write bursts (Count)
system.mem_ctrl.dram.perBankRdBursts::7           147                       # Per bank write bursts (Count)
system.mem_ctrl.dram.perBankRdBursts::8           216                       # Per bank write bursts (Count)
system.mem_ctrl.dram.perBankRdBursts::9           146                       # Per bank write bursts (Count)
system.mem_ctrl.dram.perBankRdBursts::10           72                       # Per bank write bursts (Count)
system.mem_ctrl.dram.perBankRdBursts::11          175                       # Per bank write bursts (Count)
system.mem_ctrl.dram.perBankRdBursts::12          344                       # Per bank write bursts (Count)
system.mem_ctrl.dram.perBankRdBursts::13          380                       # Per bank write bursts (Count)
system.mem_ctrl.dram.perBankRdBursts::14          233                       # Per bank write bursts (Count)
system.mem_ctrl.dram.perBankRdBursts::15          153                       # Per bank write bursts (Count)
system.mem_ctrl.dram.perBankWrBursts::0            58                       # Per bank write bursts (Count)
system.mem_ctrl.dram.perBankWrBursts::1            26                       # Per bank write bursts (Count)
system.mem_ctrl.dram.perBankWrBursts::2             0                       # Per bank write bursts (Count)
system.mem_ctrl.dram.perBankWrBursts::3            17                       # Per bank write bursts (Count)
system.mem_ctrl.dram.perBankWrBursts::4             9                       # Per bank write bursts (Count)
system.mem_ctrl.dram.perBankWrBursts::5             1                       # Per bank write bursts (Count)
system.mem_ctrl.dram.perBankWrBursts::6             0                       # Per bank write bursts (Count)
system.mem_ctrl.dram.perBankWrBursts::7            13                       # Per bank write bursts (Count)
system.mem_ctrl.dram.perBankWrBursts::8             6                       # Per bank write bursts (Count)
system.mem_ctrl.dram.perBankWrBursts::9             9                       # Per bank write bursts (Count)
system.mem_ctrl.dram.perBankWrBursts::10            8                       # Per bank write bursts (Count)
system.mem_ctrl.dram.perBankWrBursts::11           13                       # Per bank write bursts (Count)
system.mem_ctrl.dram.perBankWrBursts::12          207                       # Per bank write bursts (Count)
system.mem_ctrl.dram.perBankWrBursts::13           31                       # Per bank write bursts (Count)
system.mem_ctrl.dram.perBankWrBursts::14           12                       # Per bank write bursts (Count)
system.mem_ctrl.dram.perBankWrBursts::15            2                       # Per bank write bursts (Count)
system.mem_ctrl.dram.totQLat                 51055634                       # Total ticks spent queuing (Tick)
system.mem_ctrl.dram.totBusLat               19215000                       # Total ticks spent in databus transfers (Tick)
system.mem_ctrl.dram.totMemAccLat           123111884                       # Total ticks spent from burst creation until serviced by the DRAM (Tick)
system.mem_ctrl.dram.avgQLat                 13285.36                       # Average queueing delay per DRAM burst ((Tick/Count))
system.mem_ctrl.dram.avgBusLat                5000.00                       # Average bus latency per DRAM burst ((Tick/Count))
system.mem_ctrl.dram.avgMemAccLat            32035.36                       # Average memory access latency per DRAM burst ((Tick/Count))
system.mem_ctrl.dram.readRowHits                 2253                       # Number of row buffer hits during reads (Count)
system.mem_ctrl.dram.writeRowHits                 339                       # Number of row buffer hits during writes (Count)
system.mem_ctrl.dram.readRowHitRate             58.63                       # Row buffer hit rate for reads (Ratio)
system.mem_ctrl.dram.writeRowHitRate            82.28                       # Row buffer hit rate for writes (Ratio)
system.mem_ctrl.dram.bytesPerActivate::samples         1661                       # Bytes accessed per row activation (Byte)
system.mem_ctrl.dram.bytesPerActivate::mean   163.487056                       # Bytes accessed per row activation (Byte)
system.mem_ctrl.dram.bytesPerActivate::gmean   119.351450                       # Bytes accessed per row activation (Byte)
system.mem_ctrl.dram.bytesPerActivate::stdev   168.644138                       # Bytes accessed per row activation (Byte)
system.mem_ctrl.dram.bytesPerActivate::0-127          791     47.62%     47.62% # Bytes accessed per row activation (Byte)
system.mem_ctrl.dram.bytesPerActivate::128-255          559     33.65%     81.28% # Bytes accessed per row activation (Byte)
system.mem_ctrl.dram.bytesPerActivate::256-383          152      9.15%     90.43% # Bytes accessed per row activation (Byte)
system.mem_ctrl.dram.bytesPerActivate::384-511           74      4.46%     94.88% # Bytes accessed per row activation (Byte)
system.mem_ctrl.dram.bytesPerActivate::512-639           31      1.87%     96.75% # Bytes accessed per row activation (Byte)
system.mem_ctrl.dram.bytesPerActivate::640-767           17      1.02%     97.77% # Bytes accessed per row activation (Byte)
system.mem_ctrl.dram.bytesPerActivate::768-895            8      0.48%     98.25% # Bytes accessed per row activation (Byte)
system.mem_ctrl.dram.bytesPerActivate::896-1023           11      0.66%     98.92% # Bytes accessed per row activation (Byte)
system.mem_ctrl.dram.bytesPerActivate::1024-1151           18      1.08%    100.00% # Bytes accessed per row activation (Byte)
system.mem_ctrl.dram.bytesPerActivate::total         1661                       # Bytes accessed per row activation (Byte)
system.mem_ctrl.dram.dramBytesRead             245952                       # Total bytes read (Byte)
system.mem_ctrl.dram.dramBytesWritten           26368                       # Total bytes written (Byte)
system.mem_ctrl.dram.avgRdBW               303.028520                       # Average DRAM read bandwidth in MiBytes/s ((Byte/Second))
system.mem_ctrl.dram.avgWrBW                32.487054                       # Average DRAM write bandwidth in MiBytes/s ((Byte/Second))
system.mem_ctrl.dram.peakBW                  12800.00                       # Theoretical peak bandwidth in MiByte/s ((Byte/Second))
system.mem_ctrl.dram.busUtil                     2.62                       # Data bus utilization in percentage (Ratio)
system.mem_ctrl.dram.busUtilRead                 2.37                       # Data bus utilization in percentage for reads (Ratio)
system.mem_ctrl.dram.busUtilWrite                0.25                       # Data bus utilization in percentage for writes (Ratio)
system.mem_ctrl.dram.pageHitRate                60.92                       # Row buffer hit rate, read and write combined (Ratio)
system.mem_ctrl.dram.power_state.pwrStateResidencyTicks::UNDEFINED    811646375                       # Cumulative time (in ticks) in various power states (Tick)
system.mem_ctrl.dram.rank0.actEnergy          6497400                       # Energy for activate commands per rank (pJ) (Joule)
system.mem_ctrl.dram.rank0.preEnergy          3461040                       # Energy for precharge commands per rank (pJ) (Joule)
system.mem_ctrl.dram.rank0.readEnergy        15165360                       # Energy for read commands per rank (pJ) (Joule)
system.mem_ctrl.dram.rank0.writeEnergy         647280                       # Energy for write commands per rank (pJ) (Joule)
system.mem_ctrl.dram.rank0.refreshEnergy 63922560.000000                       # Energy for refresh commands per rank (pJ) (Joule)
system.mem_ctrl.dram.rank0.actBackEnergy    340932960                       # Energy for active background per rank (pJ) (Joule)
system.mem_ctrl.dram.rank0.preBackEnergy     24571200                       # Energy for precharge background per rank (pJ) (Joule)
system.mem_ctrl.dram.rank0.actPowerDownEnergy            0                       # Energy for active power-down per rank (pJ) (Joule)
system.mem_ctrl.dram.rank0.prePowerDownEnergy            0                       # Energy for precharge power-down per rank (pJ) (Joule)
system.mem_ctrl.dram.rank0.selfRefreshEnergy            0                       # Energy for self refresh per rank (pJ) (Joule)
system.mem_ctrl.dram.rank0.totalEnergy      455197800                       # Total energy per rank (pJ) (Joule)
system.mem_ctrl.dram.rank0.averagePower    560.832666                       # Core power per rank (mW) (Watt)
system.mem_ctrl.dram.rank0.totalIdleTime            0                       # Total Idle time Per DRAM Rank (Tick)
system.mem_ctrl.dram.rank0.pwrStateTime::IDLE     60921754                       # Time in different power states (Tick)
system.mem_ctrl.dram.rank0.pwrStateTime::REF     27040000                       # Time in different power states (Tick)
system.mem_ctrl.dram.rank0.pwrStateTime::SREF            0                       # Time in different power states (Tick)
system.mem_ctrl.dram.rank0.pwrStateTime::PRE_PDN            0                       # Time in different power states (Tick)
system.mem_ctrl.dram.rank0.pwrStateTime::ACT    723684621                       # Time in different power states (Tick)
system.mem_ctrl.dram.rank0.pwrStateTime::ACT_PDN            0                       # Time in different power states (Tick)
system.mem_ctrl.dram.rank1.actEnergy          5376420                       # Energy for activate commands per rank (pJ) (Joule)
system.mem_ctrl.dram.rank1.preEnergy          2842455                       # Energy for precharge commands per rank (pJ) (Joule)
system.mem_ctrl.dram.rank1.readEnergy        12273660                       # Energy for read commands per rank (pJ) (Joule)
system.mem_ctrl.dram.rank1.writeEnergy        1503360                       # Energy for write commands per rank (pJ) (Joule)
system.mem_ctrl.dram.rank1.refreshEnergy 63922560.000000                       # Energy for refresh commands per rank (pJ) (Joule)
system.mem_ctrl.dram.rank1.actBackEnergy    325448910                       # Energy for active background per rank (pJ) (Joule)
system.mem_ctrl.dram.rank1.preBackEnergy     37610400                       # Energy for precharge background per rank (pJ) (Joule)
system.mem_ctrl.dram.rank1.actPowerDownEnergy            0                       # Energy for active power-down per rank (pJ) (Joule)
system.mem_ctrl.dram.rank1.prePowerDownEnergy            0                       # Energy for precharge power-down per rank (pJ) (Joule)
system.mem_ctrl.dram.rank1.selfRefreshEnergy            0                       # Energy for self refresh per rank (pJ) (Joule)
system.mem_ctrl.dram.rank1.totalEnergy      448977765                       # Total energy per rank (pJ) (Joule)
system.mem_ctrl.dram.rank1.averagePower    553.169187                       # Core power per rank (mW) (Watt)
system.mem_ctrl.dram.rank1.totalIdleTime            0                       # Total Idle time Per DRAM Rank (Tick)
system.mem_ctrl.dram.rank1.pwrStateTime::IDLE     95003096                       # Time in different power states (Tick)
system.mem_ctrl.dram.rank1.pwrStateTime::REF     27040000                       # Time in different power states (Tick)
system.mem_ctrl.dram.rank1.pwrStateTime::SREF            0                       # Time in different power states (Tick)
system.mem_ctrl.dram.rank1.pwrStateTime::PRE_PDN            0                       # Time in different power states (Tick)
system.mem_ctrl.dram.rank1.pwrStateTime::ACT    689603279                       # Time in different power states (Tick)
system.mem_ctrl.dram.rank1.pwrStateTime::ACT_PDN            0                       # Time in different power states (Tick)
system.mem_ctrl.power_state.pwrStateResidencyTicks::UNDEFINED    811646375                       # Cumulative time (in ticks) in various power states (Tick)
system.membus.transDist::ReadResp                3905                       # Transaction distribution (Count)
system.membus.transDist::WritebackDirty           550                       # Transaction distribution (Count)
system.membus.transDist::CleanEvict              3578                       # Transaction distribution (Count)
system.membus.transDist::UpgradeReq                 1                       # Transaction distribution (Count)
system.membus.transDist::ReadExReq                224                       # Transaction distribution (Count)
system.membus.transDist::ReadExResp               224                       # Transaction distribution (Count)
system.membus.transDist::ReadSharedReq           3904                       # Transaction distribution (Count)
system.membus.pktCount_system.cpu.l1d.mem_side_port::system.mem_ctrl.port         6181                       # Packet count per connected requestor and responder (Count)
system.membus.pktCount_system.cpu.l1d.mem_side_port::total         6181                       # Packet count per connected requestor and responder (Count)
system.membus.pktCount_system.cpu.l1i.mem_side_port::system.mem_ctrl.port         6204                       # Packet count per connected requestor and responder (Count)
system.membus.pktCount_system.cpu.l1i.mem_side_port::total         6204                       # Packet count per connected requestor and responder (Count)
system.membus.pktCount::total                   12385                       # Packet count per connected requestor and responder (Count)
system.membus.pktSize_system.cpu.l1d.mem_side_port::system.mem_ctrl.port       167040                       # Cumulative packet size per connected requestor and responder (Byte)
system.membus.pktSize_system.cpu.l1d.mem_side_port::total       167040                       # Cumulative packet size per connected requestor and responder (Byte)
system.membus.pktSize_system.cpu.l1i.mem_side_port::system.mem_ctrl.port       132352                       # Cumulative packet size per connected requestor and responder (Byte)
system.membus.pktSize_system.cpu.l1i.mem_side_port::total       132352                       # Cumulative packet size per connected requestor and responder (Byte)
system.membus.pktSize::total                   299392                       # Cumulative packet size per connected requestor and responder (Byte)
system.membus.snoops                                1                       # Total snoops (Count)
system.membus.snoopTraffic                         64                       # Total snoop traffic (Byte)
system.membus.snoopFanout::samples               4129                       # Request fanout histogram (Count)
system.membus.snoopFanout::mean              0.007023                       # Request fanout histogram (Count)
system.membus.snoopFanout::stdev             0.083522                       # Request fanout histogram (Count)
system.membus.snoopFanout::underflows               0      0.00%      0.00% # Request fanout histogram (Count)
system.membus.snoopFanout::0                     4100     99.30%     99.30% # Request fanout histogram (Count)
system.membus.snoopFanout::1                       29      0.70%    100.00% # Request fanout histogram (Count)
system.membus.snoopFanout::2                        0      0.00%    100.00% # Request fanout histogram (Count)
system.membus.snoopFanout::overflows                0      0.00%    100.00% # Request fanout histogram (Count)
system.membus.snoopFanout::min_value                0                       # Request fanout histogram (Count)
system.membus.snoopFanout::max_value                1                       # Request fanout histogram (Count)
system.membus.snoopFanout::total                 4129                       # Request fanout histogram (Count)
system.membus.power_state.pwrStateResidencyTicks::UNDEFINED    811646375                       # Cumulative time (in ticks) in various power states (Tick)
system.membus.reqLayer2.occupancy           139423181                       # Layer occupancy (ticks) (Tick)
system.membus.reqLayer2.utilization               0.2                       # Layer utilization (Ratio)
system.membus.respLayer2.occupancy          139361195                       # Layer occupancy (ticks) (Tick)
system.membus.respLayer2.utilization              0.2                       # Layer utilization (Ratio)
system.membus.respLayer3.occupancy          141525736                       # Layer occupancy (ticks) (Tick)
system.membus.respLayer3.utilization              0.2                       # Layer utilization (Ratio)
system.membus.snoop_filter.totRequests           8257                       # Total number of requests made to the snoop filter. (Count)
system.membus.snoop_filter.hitSingleRequests         4129                       # Number of requests hitting in the snoop filter with a single holder of the requested data. (Count)
system.membus.snoop_filter.hitMultiRequests           28                       # Number of requests hitting in the snoop filter with multiple (>1) holders of the requested data. (Count)
system.membus.snoop_filter.totSnoops                0                       # Total number of snoops made to the snoop filter. (Count)
system.membus.snoop_filter.hitSingleSnoops            0                       # Number of snoops hitting in the snoop filter with a single holder of the requested data. (Count)
system.membus.snoop_filter.hitMultiSnoops            0                       # Number of snoops hitting in the snoop filter with multiple (>1) holders of the requested data. (Count)
system.workload.inst.arm                            0                       # number of arm instructions executed (Count)
system.workload.inst.quiesce                        0                       # number of quiesce instructions executed (Count)

---------- End Simulation Statistics   ----------
