
---------- Begin Simulation Statistics ----------
simSeconds                                   0.021403                       # Number of seconds simulated (Second)
simTicks                                  21402731585                       # Number of ticks simulated (Tick)
finalTick                                 21402731585                       # Number of ticks from beginning of simulation (restored from checkpoints and never reset) (Tick)
simFreq                                  1000000000000                       # The number of ticks per simulated second ((Tick/Second))
hostSeconds                                     53.53                       # Real time elapsed on the host (Second)
hostTickRate                                399797265                       # The number of ticks simulated per host second (ticks/s) ((Tick/Second))
hostMemory                                    8630564                       # Number of bytes of host memory used (Byte)
simInsts                                      2558634                       # Number of instructions simulated (Count)
simOps                                        4504082                       # Number of ops (including micro ops) simulated (Count)
hostInstRate                                    47795                       # Simulator instruction rate (inst/s) ((Count/Second))
hostOpRate                                      84135                       # Simulator op (including micro ops) rate (op/s) ((Count/Second))
system.clk_domain.clock                         13333                       # Clock period in ticks (Tick)
system.clk_domain.voltage_domain.voltage            1                       # Voltage in Volts (Volt)
system.cpu.numCycles                          1605246                       # Number of cpu cycles simulated (Cycle)
system.cpu.cpi                               0.627384                       # CPI: cycles per instruction (core level) ((Cycle/Count))
system.cpu.ipc                               1.593920                       # IPC: instructions per cycle (core level) ((Count/Cycle))
system.cpu.numWorkItemsStarted                      0                       # Number of work items this cpu started (Count)
system.cpu.numWorkItemsCompleted                    0                       # Number of work items this cpu completed (Count)
system.cpu.instsAdded                         5419562                       # Number of instructions added to the IQ (excludes non-spec) (Count)
system.cpu.nonSpecInstsAdded                     2707                       # Number of non-speculative instructions added to the IQ (Count)
system.cpu.instsIssued                        5127103                       # Number of instructions issued (Count)
system.cpu.squashedInstsIssued                   9801                       # Number of squashed instructions issued (Count)
system.cpu.squashedInstsExamined               918153                       # Number of squashed instructions iterated over during squash; mainly for profiling (Count)
system.cpu.squashedOperandsExamined           1606115                       # Number of squashed operands that are examined and possibly removed from graph (Count)
system.cpu.squashedNonSpecRemoved                 199                       # Number of squashed non-spec instructions that were removed (Count)
system.cpu.numIssuedDist::samples             1602285                       # Number of insts issued each cycle (Count)
system.cpu.numIssuedDist::mean               3.199870                       # Number of insts issued each cycle (Count)
system.cpu.numIssuedDist::stdev              2.596021                       # Number of insts issued each cycle (Count)
system.cpu.numIssuedDist::underflows                0      0.00%      0.00% # Number of insts issued each cycle (Count)
system.cpu.numIssuedDist::0                    406576     25.37%     25.37% # Number of insts issued each cycle (Count)
system.cpu.numIssuedDist::1                    122125      7.62%     33.00% # Number of insts issued each cycle (Count)
system.cpu.numIssuedDist::2                    156058      9.74%     42.74% # Number of insts issued each cycle (Count)
system.cpu.numIssuedDist::3                    214058     13.36%     56.10% # Number of insts issued each cycle (Count)
system.cpu.numIssuedDist::4                    153134      9.56%     65.65% # Number of insts issued each cycle (Count)
system.cpu.numIssuedDist::5                    164517     10.27%     75.92% # Number of insts issued each cycle (Count)
system.cpu.numIssuedDist::6                    170336     10.63%     86.55% # Number of insts issued each cycle (Count)
system.cpu.numIssuedDist::7                    130297      8.13%     94.68% # Number of insts issued each cycle (Count)
system.cpu.numIssuedDist::8                     85184      5.32%    100.00% # Number of insts issued each cycle (Count)
system.cpu.numIssuedDist::overflows                 0      0.00%    100.00% # Number of insts issued each cycle (Count)
system.cpu.numIssuedDist::min_value                 0                       # Number of insts issued each cycle (Count)
system.cpu.numIssuedDist::max_value                 8                       # Number of insts issued each cycle (Count)
system.cpu.numIssuedDist::total               1602285                       # Number of insts issued each cycle (Count)
system.cpu.statFuBusy::No_OpClass                   0      0.00%      0.00% # attempts to use FU when none available (Count)
system.cpu.statFuBusy::IntAlu                  121523     81.62%     81.62% # attempts to use FU when none available (Count)
system.cpu.statFuBusy::IntMult                      0      0.00%     81.62% # attempts to use FU when none available (Count)
system.cpu.statFuBusy::IntDiv                       0      0.00%     81.62% # attempts to use FU when none available (Count)
system.cpu.statFuBusy::FloatAdd                     0      0.00%     81.62% # attempts to use FU when none available (Count)
system.cpu.statFuBusy::FloatCmp                     0      0.00%     81.62% # attempts to use FU when none available (Count)
system.cpu.statFuBusy::FloatCvt                     0      0.00%     81.62% # attempts to use FU when none available (Count)
system.cpu.statFuBusy::FloatMult                    0      0.00%     81.62% # attempts to use FU when none available (Count)
system.cpu.statFuBusy::FloatMultAcc                 0      0.00%     81.62% # attempts to use FU when none available (Count)
system.cpu.statFuBusy::FloatDiv                     0      0.00%     81.62% # attempts to use FU when none available (Count)
system.cpu.statFuBusy::FloatMisc                    0      0.00%     81.62% # attempts to use FU when none available (Count)
system.cpu.statFuBusy::FloatSqrt                    0      0.00%     81.62% # attempts to use FU when none available (Count)
system.cpu.statFuBusy::SimdAdd                     14      0.01%     81.63% # attempts to use FU when none available (Count)
system.cpu.statFuBusy::SimdAddAcc                   0      0.00%     81.63% # attempts to use FU when none available (Count)
system.cpu.statFuBusy::SimdAlu                    107      0.07%     81.70% # attempts to use FU when none available (Count)
system.cpu.statFuBusy::SimdCmp                      0      0.00%     81.70% # attempts to use FU when none available (Count)
system.cpu.statFuBusy::SimdCvt                    199      0.13%     81.83% # attempts to use FU when none available (Count)
system.cpu.statFuBusy::SimdMisc                    32      0.02%     81.86% # attempts to use FU when none available (Count)
system.cpu.statFuBusy::SimdMult                     0      0.00%     81.86% # attempts to use FU when none available (Count)
system.cpu.statFuBusy::SimdMultAcc                  0      0.00%     81.86% # attempts to use FU when none available (Count)
system.cpu.statFuBusy::SimdMatMultAcc               0      0.00%     81.86% # attempts to use FU when none available (Count)
system.cpu.statFuBusy::SimdShift                   27      0.02%     81.87% # attempts to use FU when none available (Count)
system.cpu.statFuBusy::SimdShiftAcc                 0      0.00%     81.87% # attempts to use FU when none available (Count)
system.cpu.statFuBusy::SimdDiv                      0      0.00%     81.87% # attempts to use FU when none available (Count)
system.cpu.statFuBusy::SimdSqrt                     0      0.00%     81.87% # attempts to use FU when none available (Count)
system.cpu.statFuBusy::SimdFloatAdd                 0      0.00%     81.87% # attempts to use FU when none available (Count)
system.cpu.statFuBusy::SimdFloatAlu                 0      0.00%     81.87% # attempts to use FU when none available (Count)
system.cpu.statFuBusy::SimdFloatCmp                 0      0.00%     81.87% # attempts to use FU when none available (Count)
system.cpu.statFuBusy::SimdFloatCvt                 0      0.00%     81.87% # attempts to use FU when none available (Count)
system.cpu.statFuBusy::SimdFloatDiv                 0      0.00%     81.87% # attempts to use FU when none available (Count)
system.cpu.statFuBusy::SimdFloatMisc                0      0.00%     81.87% # attempts to use FU when none available (Count)
system.cpu.statFuBusy::SimdFloatMult                0      0.00%     81.87% # attempts to use FU when none available (Count)
system.cpu.statFuBusy::SimdFloatMultAcc             0      0.00%     81.87% # attempts to use FU when none available (Count)
system.cpu.statFuBusy::SimdFloatMatMultAcc            0      0.00%     81.87% # attempts to use FU when none available (Count)
system.cpu.statFuBusy::SimdFloatSqrt                0      0.00%     81.87% # attempts to use FU when none available (Count)
system.cpu.statFuBusy::SimdReduceAdd                0      0.00%     81.87% # attempts to use FU when none available (Count)
system.cpu.statFuBusy::SimdReduceAlu                0      0.00%     81.87% # attempts to use FU when none available (Count)
system.cpu.statFuBusy::SimdReduceCmp                0      0.00%     81.87% # attempts to use FU when none available (Count)
system.cpu.statFuBusy::SimdFloatReduceAdd            0      0.00%     81.87% # attempts to use FU when none available (Count)
system.cpu.statFuBusy::SimdFloatReduceCmp            0      0.00%     81.87% # attempts to use FU when none available (Count)
system.cpu.statFuBusy::SimdAes                      0      0.00%     81.87% # attempts to use FU when none available (Count)
system.cpu.statFuBusy::SimdAesMix                   0      0.00%     81.87% # attempts to use FU when none available (Count)
system.cpu.statFuBusy::SimdSha1Hash                 0      0.00%     81.87% # attempts to use FU when none available (Count)
system.cpu.statFuBusy::SimdSha1Hash2                0      0.00%     81.87% # attempts to use FU when none available (Count)
system.cpu.statFuBusy::SimdSha256Hash               0      0.00%     81.87% # attempts to use FU when none available (Count)
system.cpu.statFuBusy::SimdSha256Hash2              0      0.00%     81.87% # attempts to use FU when none available (Count)
system.cpu.statFuBusy::SimdShaSigma2                0      0.00%     81.87% # attempts to use FU when none available (Count)
system.cpu.statFuBusy::SimdShaSigma3                0      0.00%     81.87% # attempts to use FU when none available (Count)
system.cpu.statFuBusy::SimdPredAlu                  0      0.00%     81.87% # attempts to use FU when none available (Count)
system.cpu.statFuBusy::Matrix                       0      0.00%     81.87% # attempts to use FU when none available (Count)
system.cpu.statFuBusy::MatrixMov                    0      0.00%     81.87% # attempts to use FU when none available (Count)
system.cpu.statFuBusy::MatrixOP                     0      0.00%     81.87% # attempts to use FU when none available (Count)
system.cpu.statFuBusy::MemRead                  14520      9.75%     91.63% # attempts to use FU when none available (Count)
system.cpu.statFuBusy::MemWrite                 11138      7.48%     99.11% # attempts to use FU when none available (Count)
system.cpu.statFuBusy::FloatMemRead               872      0.59%     99.69% # attempts to use FU when none available (Count)
system.cpu.statFuBusy::FloatMemWrite              458      0.31%    100.00% # attempts to use FU when none available (Count)
system.cpu.statFuBusy::IprAccess                    0      0.00%    100.00% # attempts to use FU when none available (Count)
system.cpu.statFuBusy::InstPrefetch                 0      0.00%    100.00% # attempts to use FU when none available (Count)
system.cpu.statFuBusy::SimdUnitStrideLoad            0      0.00%    100.00% # attempts to use FU when none available (Count)
system.cpu.statFuBusy::SimdUnitStrideStore            0      0.00%    100.00% # attempts to use FU when none available (Count)
system.cpu.statFuBusy::SimdUnitStrideMaskLoad            0      0.00%    100.00% # attempts to use FU when none available (Count)
system.cpu.statFuBusy::SimdUnitStrideMaskStore            0      0.00%    100.00% # attempts to use FU when none available (Count)
system.cpu.statFuBusy::SimdStridedLoad              0      0.00%    100.00% # attempts to use FU when none available (Count)
system.cpu.statFuBusy::SimdStridedStore             0      0.00%    100.00% # attempts to use FU when none available (Count)
system.cpu.statFuBusy::SimdIndexedLoad              0      0.00%    100.00% # attempts to use FU when none available (Count)
system.cpu.statFuBusy::SimdIndexedStore             0      0.00%    100.00% # attempts to use FU when none available (Count)
system.cpu.statFuBusy::SimdWholeRegisterLoad            0      0.00%    100.00% # attempts to use FU when none available (Count)
system.cpu.statFuBusy::SimdWholeRegisterStore            0      0.00%    100.00% # attempts to use FU when none available (Count)
system.cpu.statFuBusy::SimdUnitStrideFaultOnlyFirstLoad            0      0.00%    100.00% # attempts to use FU when none available (Count)
system.cpu.statFuBusy::SimdUnitStrideSegmentedLoad            0      0.00%    100.00% # attempts to use FU when none available (Count)
system.cpu.statFuBusy::SimdUnitStrideSegmentedStore            0      0.00%    100.00% # attempts to use FU when none available (Count)
system.cpu.statFuBusy::SimdExt                      0      0.00%    100.00% # attempts to use FU when none available (Count)
system.cpu.statFuBusy::SimdFloatExt                 0      0.00%    100.00% # attempts to use FU when none available (Count)
system.cpu.statFuBusy::SimdConfig                   0      0.00%    100.00% # attempts to use FU when none available (Count)
system.cpu.statIssuedInstType_0::No_OpClass        29126      0.57%      0.57% # Number of instructions issued per FU type, per thread (Count)
system.cpu.statIssuedInstType_0::IntAlu       4011310     78.24%     78.81% # Number of instructions issued per FU type, per thread (Count)
system.cpu.statIssuedInstType_0::IntMult          156      0.00%     78.81% # Number of instructions issued per FU type, per thread (Count)
system.cpu.statIssuedInstType_0::IntDiv         43130      0.84%     79.65% # Number of instructions issued per FU type, per thread (Count)
system.cpu.statIssuedInstType_0::FloatAdd         9088      0.18%     79.83% # Number of instructions issued per FU type, per thread (Count)
system.cpu.statIssuedInstType_0::FloatCmp            0      0.00%     79.83% # Number of instructions issued per FU type, per thread (Count)
system.cpu.statIssuedInstType_0::FloatCvt         1780      0.03%     79.86% # Number of instructions issued per FU type, per thread (Count)
system.cpu.statIssuedInstType_0::FloatMult            0      0.00%     79.86% # Number of instructions issued per FU type, per thread (Count)
system.cpu.statIssuedInstType_0::FloatMultAcc            0      0.00%     79.86% # Number of instructions issued per FU type, per thread (Count)
system.cpu.statIssuedInstType_0::FloatDiv            0      0.00%     79.86% # Number of instructions issued per FU type, per thread (Count)
system.cpu.statIssuedInstType_0::FloatMisc            0      0.00%     79.86% # Number of instructions issued per FU type, per thread (Count)
system.cpu.statIssuedInstType_0::FloatSqrt            0      0.00%     79.86% # Number of instructions issued per FU type, per thread (Count)
system.cpu.statIssuedInstType_0::SimdAdd         7631      0.15%     80.01% # Number of instructions issued per FU type, per thread (Count)
system.cpu.statIssuedInstType_0::SimdAddAcc            0      0.00%     80.01% # Number of instructions issued per FU type, per thread (Count)
system.cpu.statIssuedInstType_0::SimdAlu        17484      0.34%     80.35% # Number of instructions issued per FU type, per thread (Count)
system.cpu.statIssuedInstType_0::SimdCmp            6      0.00%     80.35% # Number of instructions issued per FU type, per thread (Count)
system.cpu.statIssuedInstType_0::SimdCvt        16171      0.32%     80.67% # Number of instructions issued per FU type, per thread (Count)
system.cpu.statIssuedInstType_0::SimdMisc        15977      0.31%     80.98% # Number of instructions issued per FU type, per thread (Count)
system.cpu.statIssuedInstType_0::SimdMult            0      0.00%     80.98% # Number of instructions issued per FU type, per thread (Count)
system.cpu.statIssuedInstType_0::SimdMultAcc            0      0.00%     80.98% # Number of instructions issued per FU type, per thread (Count)
system.cpu.statIssuedInstType_0::SimdMatMultAcc            0      0.00%     80.98% # Number of instructions issued per FU type, per thread (Count)
system.cpu.statIssuedInstType_0::SimdShift         3279      0.06%     81.04% # Number of instructions issued per FU type, per thread (Count)
system.cpu.statIssuedInstType_0::SimdShiftAcc            0      0.00%     81.04% # Number of instructions issued per FU type, per thread (Count)
system.cpu.statIssuedInstType_0::SimdDiv            0      0.00%     81.04% # Number of instructions issued per FU type, per thread (Count)
system.cpu.statIssuedInstType_0::SimdSqrt            0      0.00%     81.04% # Number of instructions issued per FU type, per thread (Count)
system.cpu.statIssuedInstType_0::SimdFloatAdd            1      0.00%     81.04% # Number of instructions issued per FU type, per thread (Count)
system.cpu.statIssuedInstType_0::SimdFloatAlu            0      0.00%     81.04% # Number of instructions issued per FU type, per thread (Count)
system.cpu.statIssuedInstType_0::SimdFloatCmp            0      0.00%     81.04% # Number of instructions issued per FU type, per thread (Count)
system.cpu.statIssuedInstType_0::SimdFloatCvt            4      0.00%     81.04% # Number of instructions issued per FU type, per thread (Count)
system.cpu.statIssuedInstType_0::SimdFloatDiv            1      0.00%     81.04% # Number of instructions issued per FU type, per thread (Count)
system.cpu.statIssuedInstType_0::SimdFloatMisc            0      0.00%     81.04% # Number of instructions issued per FU type, per thread (Count)
system.cpu.statIssuedInstType_0::SimdFloatMult            0      0.00%     81.04% # Number of instructions issued per FU type, per thread (Count)
system.cpu.statIssuedInstType_0::SimdFloatMultAcc            0      0.00%     81.04% # Number of instructions issued per FU type, per thread (Count)
system.cpu.statIssuedInstType_0::SimdFloatMatMultAcc            0      0.00%     81.04% # Number of instructions issued per FU type, per thread (Count)
system.cpu.statIssuedInstType_0::SimdFloatSqrt            0      0.00%     81.04% # Number of instructions issued per FU type, per thread (Count)
system.cpu.statIssuedInstType_0::SimdReduceAdd            0      0.00%     81.04% # Number of instructions issued per FU type, per thread (Count)
system.cpu.statIssuedInstType_0::SimdReduceAlu            0      0.00%     81.04% # Number of instructions issued per FU type, per thread (Count)
system.cpu.statIssuedInstType_0::SimdReduceCmp            0      0.00%     81.04% # Number of instructions issued per FU type, per thread (Count)
system.cpu.statIssuedInstType_0::SimdFloatReduceAdd            0      0.00%     81.04% # Number of instructions issued per FU type, per thread (Count)
system.cpu.statIssuedInstType_0::SimdFloatReduceCmp            0      0.00%     81.04% # Number of instructions issued per FU type, per thread (Count)
system.cpu.statIssuedInstType_0::SimdAes            0      0.00%     81.04% # Number of instructions issued per FU type, per thread (Count)
system.cpu.statIssuedInstType_0::SimdAesMix            0      0.00%     81.04% # Number of instructions issued per FU type, per thread (Count)
system.cpu.statIssuedInstType_0::SimdSha1Hash            0      0.00%     81.04% # Number of instructions issued per FU type, per thread (Count)
system.cpu.statIssuedInstType_0::SimdSha1Hash2            0      0.00%     81.04% # Number of instructions issued per FU type, per thread (Count)
system.cpu.statIssuedInstType_0::SimdSha256Hash            0      0.00%     81.04% # Number of instructions issued per FU type, per thread (Count)
system.cpu.statIssuedInstType_0::SimdSha256Hash2            0      0.00%     81.04% # Number of instructions issued per FU type, per thread (Count)
system.cpu.statIssuedInstType_0::SimdShaSigma2            0      0.00%     81.04% # Number of instructions issued per FU type, per thread (Count)
system.cpu.statIssuedInstType_0::SimdShaSigma3            0      0.00%     81.04% # Number of instructions issued per FU type, per thread (Count)
system.cpu.statIssuedInstType_0::SimdPredAlu            0      0.00%     81.04% # Number of instructions issued per FU type, per thread (Count)
system.cpu.statIssuedInstType_0::Matrix             0      0.00%     81.04% # Number of instructions issued per FU type, per thread (Count)
system.cpu.statIssuedInstType_0::MatrixMov            0      0.00%     81.04% # Number of instructions issued per FU type, per thread (Count)
system.cpu.statIssuedInstType_0::MatrixOP            0      0.00%     81.04% # Number of instructions issued per FU type, per thread (Count)
system.cpu.statIssuedInstType_0::MemRead       657447     12.82%     93.87% # Number of instructions issued per FU type, per thread (Count)
system.cpu.statIssuedInstType_0::MemWrite       269364      5.25%     99.12% # Number of instructions issued per FU type, per thread (Count)
system.cpu.statIssuedInstType_0::FloatMemRead        27039      0.53%     99.65% # Number of instructions issued per FU type, per thread (Count)
system.cpu.statIssuedInstType_0::FloatMemWrite        18109      0.35%    100.00% # Number of instructions issued per FU type, per thread (Count)
system.cpu.statIssuedInstType_0::IprAccess            0      0.00%    100.00% # Number of instructions issued per FU type, per thread (Count)
system.cpu.statIssuedInstType_0::InstPrefetch            0      0.00%    100.00% # Number of instructions issued per FU type, per thread (Count)
system.cpu.statIssuedInstType_0::SimdUnitStrideLoad            0      0.00%    100.00% # Number of instructions issued per FU type, per thread (Count)
system.cpu.statIssuedInstType_0::SimdUnitStrideStore            0      0.00%    100.00% # Number of instructions issued per FU type, per thread (Count)
system.cpu.statIssuedInstType_0::SimdUnitStrideMaskLoad            0      0.00%    100.00% # Number of instructions issued per FU type, per thread (Count)
system.cpu.statIssuedInstType_0::SimdUnitStrideMaskStore            0      0.00%    100.00% # Number of instructions issued per FU type, per thread (Count)
system.cpu.statIssuedInstType_0::SimdStridedLoad            0      0.00%    100.00% # Number of instructions issued per FU type, per thread (Count)
system.cpu.statIssuedInstType_0::SimdStridedStore            0      0.00%    100.00% # Number of instructions issued per FU type, per thread (Count)
system.cpu.statIssuedInstType_0::SimdIndexedLoad            0      0.00%    100.00% # Number of instructions issued per FU type, per thread (Count)
system.cpu.statIssuedInstType_0::SimdIndexedStore            0      0.00%    100.00% # Number of instructions issued per FU type, per thread (Count)
system.cpu.statIssuedInstType_0::SimdWholeRegisterLoad            0      0.00%    100.00% # Number of instructions issued per FU type, per thread (Count)
system.cpu.statIssuedInstType_0::SimdWholeRegisterStore            0      0.00%    100.00% # Number of instructions issued per FU type, per thread (Count)
system.cpu.statIssuedInstType_0::SimdUnitStrideFaultOnlyFirstLoad            0      0.00%    100.00% # Number of instructions issued per FU type, per thread (Count)
system.cpu.statIssuedInstType_0::SimdUnitStrideSegmentedLoad            0      0.00%    100.00% # Number of instructions issued per FU type, per thread (Count)
system.cpu.statIssuedInstType_0::SimdUnitStrideSegmentedStore            0      0.00%    100.00% # Number of instructions issued per FU type, per thread (Count)
system.cpu.statIssuedInstType_0::SimdExt            0      0.00%    100.00% # Number of instructions issued per FU type, per thread (Count)
system.cpu.statIssuedInstType_0::SimdFloatExt            0      0.00%    100.00% # Number of instructions issued per FU type, per thread (Count)
system.cpu.statIssuedInstType_0::SimdConfig            0      0.00%    100.00% # Number of instructions issued per FU type, per thread (Count)
system.cpu.statIssuedInstType_0::total        5127103                       # Number of instructions issued per FU type, per thread (Count)
system.cpu.issueRate                         3.193967                       # Inst issue rate ((Count/Cycle))
system.cpu.fuBusy                              148890                       # FU busy when requested (Count)
system.cpu.fuBusyRate                        0.029040                       # FU busy rate (busy events/executed inst) ((Count/Count))
system.cpu.intInstQueueReads                 11769217                       # Number of integer instruction queue reads (Count)
system.cpu.intInstQueueWrites                 6156433                       # Number of integer instruction queue writes (Count)
system.cpu.intInstQueueWakeupAccesses         4953181                       # Number of integer instruction queue wakeup accesses (Count)
system.cpu.fpInstQueueReads                    245962                       # Number of floating instruction queue reads (Count)
system.cpu.fpInstQueueWrites                   184135                       # Number of floating instruction queue writes (Count)
system.cpu.fpInstQueueWakeupAccesses           116935                       # Number of floating instruction queue wakeup accesses (Count)
system.cpu.vecInstQueueReads                        0                       # Number of vector instruction queue reads (Count)
system.cpu.vecInstQueueWrites                       0                       # Number of vector instruction queue writes (Count)
system.cpu.vecInstQueueWakeupAccesses               0                       # Number of vector instruction queue wakeup accesses (Count)
system.cpu.intAluAccesses                     5123291                       # Number of integer alu accesses (Count)
system.cpu.fpAluAccesses                       123576                       # Number of floating point alu accesses (Count)
system.cpu.vecAluAccesses                           0                       # Number of vector alu accesses (Count)
system.cpu.numSquashedInsts                     34176                       # Number of squashed instructions skipped in execute (Count)
system.cpu.numSwp                                   0                       # Number of swp insts executed (Count)
system.cpu.timesIdled                             891                       # Number of times that the entire CPU went into an idle state and unscheduled itself (Count)
system.cpu.idleCycles                            2961                       # Total number of cycles that the CPU has spent unscheduled due to idling (Cycle)
system.cpu.MemDepUnit__0.insertedLoads         716226                       # Number of loads inserted to the mem dependence unit. (Count)
system.cpu.MemDepUnit__0.insertedStores        302483                       # Number of stores inserted to the mem dependence unit. (Count)
system.cpu.MemDepUnit__0.conflictingLoads        27568                       # Number of conflicting loads. (Count)
system.cpu.MemDepUnit__0.conflictingStores        15768                       # Number of conflicting stores. (Count)
system.cpu.MemDepUnit__1.insertedLoads              0                       # Number of loads inserted to the mem dependence unit. (Count)
system.cpu.MemDepUnit__1.insertedStores             0                       # Number of stores inserted to the mem dependence unit. (Count)
system.cpu.MemDepUnit__1.conflictingLoads            0                       # Number of conflicting loads. (Count)
system.cpu.MemDepUnit__1.conflictingStores            0                       # Number of conflicting stores. (Count)
system.cpu.MemDepUnit__2.insertedLoads              0                       # Number of loads inserted to the mem dependence unit. (Count)
system.cpu.MemDepUnit__2.insertedStores             0                       # Number of stores inserted to the mem dependence unit. (Count)
system.cpu.MemDepUnit__2.conflictingLoads            0                       # Number of conflicting loads. (Count)
system.cpu.MemDepUnit__2.conflictingStores            0                       # Number of conflicting stores. (Count)
system.cpu.MemDepUnit__3.insertedLoads              0                       # Number of loads inserted to the mem dependence unit. (Count)
system.cpu.MemDepUnit__3.insertedStores             0                       # Number of stores inserted to the mem dependence unit. (Count)
system.cpu.MemDepUnit__3.conflictingLoads            0                       # Number of conflicting loads. (Count)
system.cpu.MemDepUnit__3.conflictingStores            0                       # Number of conflicting stores. (Count)
system.cpu.branchPred.lookups_0::NoBranch         2065      0.35%      0.35% # Number of BP lookups (Count)
system.cpu.branchPred.lookups_0::Return         16644      2.82%      3.17% # Number of BP lookups (Count)
system.cpu.branchPred.lookups_0::CallDirect        21917      3.71%      6.89% # Number of BP lookups (Count)
system.cpu.branchPred.lookups_0::CallIndirect         1459      0.25%      7.13% # Number of BP lookups (Count)
system.cpu.branchPred.lookups_0::DirectCond       510070     86.46%     93.59% # Number of BP lookups (Count)
system.cpu.branchPred.lookups_0::DirectUncond        26008      4.41%     98.00% # Number of BP lookups (Count)
system.cpu.branchPred.lookups_0::IndirectCond            0      0.00%     98.00% # Number of BP lookups (Count)
system.cpu.branchPred.lookups_0::IndirectUncond        11798      2.00%    100.00% # Number of BP lookups (Count)
system.cpu.branchPred.lookups_0::total         589961                       # Number of BP lookups (Count)
system.cpu.branchPred.squashes_0::NoBranch         1832      1.26%      1.26% # Number of branches that got squashed (completely removed) as an earlier branch was mispredicted. (Count)
system.cpu.branchPred.squashes_0::Return         3957      2.72%      3.98% # Number of branches that got squashed (completely removed) as an earlier branch was mispredicted. (Count)
system.cpu.branchPred.squashes_0::CallDirect         9858      6.77%     10.75% # Number of branches that got squashed (completely removed) as an earlier branch was mispredicted. (Count)
system.cpu.branchPred.squashes_0::CallIndirect          826      0.57%     11.32% # Number of branches that got squashed (completely removed) as an earlier branch was mispredicted. (Count)
system.cpu.branchPred.squashes_0::DirectCond       114955     78.96%     90.28% # Number of branches that got squashed (completely removed) as an earlier branch was mispredicted. (Count)
system.cpu.branchPred.squashes_0::DirectUncond         7794      5.35%     95.63% # Number of branches that got squashed (completely removed) as an earlier branch was mispredicted. (Count)
system.cpu.branchPred.squashes_0::IndirectCond            0      0.00%     95.63% # Number of branches that got squashed (completely removed) as an earlier branch was mispredicted. (Count)
system.cpu.branchPred.squashes_0::IndirectUncond         6360      4.37%    100.00% # Number of branches that got squashed (completely removed) as an earlier branch was mispredicted. (Count)
system.cpu.branchPred.squashes_0::total        145582                       # Number of branches that got squashed (completely removed) as an earlier branch was mispredicted. (Count)
system.cpu.branchPred.corrected_0::NoBranch          383      2.09%      2.09% # Number of branches that got corrected but not yet commited. Branches get corrected by decode or after execute. Also a branch misprediction can be detected out-of-order. Therefore, a corrected branch might not end up beeing committed in case an even earlier branch was mispredicted (Count)
system.cpu.branchPred.corrected_0::Return           12      0.07%      2.15% # Number of branches that got corrected but not yet commited. Branches get corrected by decode or after execute. Also a branch misprediction can be detected out-of-order. Therefore, a corrected branch might not end up beeing committed in case an even earlier branch was mispredicted (Count)
system.cpu.branchPred.corrected_0::CallDirect          838      4.56%      6.71% # Number of branches that got corrected but not yet commited. Branches get corrected by decode or after execute. Also a branch misprediction can be detected out-of-order. Therefore, a corrected branch might not end up beeing committed in case an even earlier branch was mispredicted (Count)
system.cpu.branchPred.corrected_0::CallIndirect          264      1.44%      8.15% # Number of branches that got corrected but not yet commited. Branches get corrected by decode or after execute. Also a branch misprediction can be detected out-of-order. Therefore, a corrected branch might not end up beeing committed in case an even earlier branch was mispredicted (Count)
system.cpu.branchPred.corrected_0::DirectCond        14948     81.40%     89.55% # Number of branches that got corrected but not yet commited. Branches get corrected by decode or after execute. Also a branch misprediction can be detected out-of-order. Therefore, a corrected branch might not end up beeing committed in case an even earlier branch was mispredicted (Count)
system.cpu.branchPred.corrected_0::DirectUncond          667      3.63%     93.18% # Number of branches that got corrected but not yet commited. Branches get corrected by decode or after execute. Also a branch misprediction can be detected out-of-order. Therefore, a corrected branch might not end up beeing committed in case an even earlier branch was mispredicted (Count)
system.cpu.branchPred.corrected_0::IndirectCond            0      0.00%     93.18% # Number of branches that got corrected but not yet commited. Branches get corrected by decode or after execute. Also a branch misprediction can be detected out-of-order. Therefore, a corrected branch might not end up beeing committed in case an even earlier branch was mispredicted (Count)
system.cpu.branchPred.corrected_0::IndirectUncond         1252      6.82%    100.00% # Number of branches that got corrected but not yet commited. Branches get corrected by decode or after execute. Also a branch misprediction can be detected out-of-order. Therefore, a corrected branch might not end up beeing committed in case an even earlier branch was mispredicted (Count)
system.cpu.branchPred.corrected_0::total        18364                       # Number of branches that got corrected but not yet commited. Branches get corrected by decode or after execute. Also a branch misprediction can be detected out-of-order. Therefore, a corrected branch might not end up beeing committed in case an even earlier branch was mispredicted (Count)
system.cpu.branchPred.earlyResteers_0::NoBranch            0                       # Number of branches that got redirected after decode. (Count)
system.cpu.branchPred.earlyResteers_0::Return            0                       # Number of branches that got redirected after decode. (Count)
system.cpu.branchPred.earlyResteers_0::CallDirect            0                       # Number of branches that got redirected after decode. (Count)
system.cpu.branchPred.earlyResteers_0::CallIndirect            0                       # Number of branches that got redirected after decode. (Count)
system.cpu.branchPred.earlyResteers_0::DirectCond            0                       # Number of branches that got redirected after decode. (Count)
system.cpu.branchPred.earlyResteers_0::DirectUncond            0                       # Number of branches that got redirected after decode. (Count)
system.cpu.branchPred.earlyResteers_0::IndirectCond            0                       # Number of branches that got redirected after decode. (Count)
system.cpu.branchPred.earlyResteers_0::IndirectUncond            0                       # Number of branches that got redirected after decode. (Count)
system.cpu.branchPred.earlyResteers_0::total            0                       # Number of branches that got redirected after decode. (Count)
system.cpu.branchPred.committed_0::NoBranch          233      0.05%      0.05% # Number of branches finally committed  (Count)
system.cpu.branchPred.committed_0::Return        12685      2.85%      2.91% # Number of branches finally committed  (Count)
system.cpu.branchPred.committed_0::CallDirect        12059      2.71%      5.62% # Number of branches finally committed  (Count)
system.cpu.branchPred.committed_0::CallIndirect          633      0.14%      5.76% # Number of branches finally committed  (Count)
system.cpu.branchPred.committed_0::DirectCond       395112     88.91%     94.68% # Number of branches finally committed  (Count)
system.cpu.branchPred.committed_0::DirectUncond        18213      4.10%     98.78% # Number of branches finally committed  (Count)
system.cpu.branchPred.committed_0::IndirectCond            0      0.00%     98.78% # Number of branches finally committed  (Count)
system.cpu.branchPred.committed_0::IndirectUncond         5438      1.22%    100.00% # Number of branches finally committed  (Count)
system.cpu.branchPred.committed_0::total       444373                       # Number of branches finally committed  (Count)
system.cpu.branchPred.mispredicted_0::NoBranch          233      1.52%      1.52% # Number of committed branches that were mispredicted. (Count)
system.cpu.branchPred.mispredicted_0::Return            0      0.00%      1.52% # Number of committed branches that were mispredicted. (Count)
system.cpu.branchPred.mispredicted_0::CallDirect          516      3.38%      4.90% # Number of committed branches that were mispredicted. (Count)
system.cpu.branchPred.mispredicted_0::CallIndirect          238      1.56%      6.46% # Number of committed branches that were mispredicted. (Count)
system.cpu.branchPred.mispredicted_0::DirectCond        12721     83.22%     89.68% # Number of committed branches that were mispredicted. (Count)
system.cpu.branchPred.mispredicted_0::DirectUncond          387      2.53%     92.21% # Number of committed branches that were mispredicted. (Count)
system.cpu.branchPred.mispredicted_0::IndirectCond            0      0.00%     92.21% # Number of committed branches that were mispredicted. (Count)
system.cpu.branchPred.mispredicted_0::IndirectUncond         1191      7.79%    100.00% # Number of committed branches that were mispredicted. (Count)
system.cpu.branchPred.mispredicted_0::total        15286                       # Number of committed branches that were mispredicted. (Count)
system.cpu.branchPred.targetProvider_0::NoTarget       270264     45.81%     45.81% # The component providing the target for taken branches (Count)
system.cpu.branchPred.targetProvider_0::BTB       297541     50.43%     96.24% # The component providing the target for taken branches (Count)
system.cpu.branchPred.targetProvider_0::RAS        16643      2.82%     99.07% # The component providing the target for taken branches (Count)
system.cpu.branchPred.targetProvider_0::Indirect         5513      0.93%    100.00% # The component providing the target for taken branches (Count)
system.cpu.branchPred.targetProvider_0::total       589961                       # The component providing the target for taken branches (Count)
system.cpu.branchPred.targetWrong_0::NoBranch         9069     55.89%     55.89% # Number of branches where the target was incorrect or not available at prediction time. (Count)
system.cpu.branchPred.targetWrong_0::Return         7008     43.19%     99.08% # Number of branches where the target was incorrect or not available at prediction time. (Count)
system.cpu.branchPred.targetWrong_0::CallDirect           12      0.07%     99.15% # Number of branches where the target was incorrect or not available at prediction time. (Count)
system.cpu.branchPred.targetWrong_0::CallIndirect          138      0.85%    100.00% # Number of branches where the target was incorrect or not available at prediction time. (Count)
system.cpu.branchPred.targetWrong_0::DirectCond            0      0.00%    100.00% # Number of branches where the target was incorrect or not available at prediction time. (Count)
system.cpu.branchPred.targetWrong_0::DirectUncond            0      0.00%    100.00% # Number of branches where the target was incorrect or not available at prediction time. (Count)
system.cpu.branchPred.targetWrong_0::IndirectCond            0      0.00%    100.00% # Number of branches where the target was incorrect or not available at prediction time. (Count)
system.cpu.branchPred.targetWrong_0::IndirectUncond            0      0.00%    100.00% # Number of branches where the target was incorrect or not available at prediction time. (Count)
system.cpu.branchPred.targetWrong_0::total        16227                       # Number of branches where the target was incorrect or not available at prediction time. (Count)
system.cpu.branchPred.condPredicted            512135                       # Number of conditional branches predicted (Count)
system.cpu.branchPred.condPredictedTaken       254543                       # Number of conditional branches predicted as taken (Count)
system.cpu.branchPred.condIncorrect             18364                       # Number of conditional branches incorrect (Count)
system.cpu.branchPred.predTakenBTBMiss           1868                       # Number of branches predicted taken but missed in BTB (Count)
system.cpu.branchPred.NotTakenMispredicted        10679                       # Number branches predicted 'not taken' but turned out to be taken (Count)
system.cpu.branchPred.TakenMispredicted          7685                       # Number branches predicted taken but are actually not taken (Count)
system.cpu.branchPred.BTBLookups               589961                       # Number of BTB lookups (Count)
system.cpu.branchPred.BTBUpdates                 8768                       # Number of BTB updates (Count)
system.cpu.branchPred.BTBHits                  400623                       # Number of BTB hits (Count)
system.cpu.branchPred.BTBHitRatio            0.679067                       # BTB Hit Ratio (Ratio)
system.cpu.branchPred.BTBMispredicted            2769                       # Number BTB mispredictions. No target found or target wrong (Count)
system.cpu.branchPred.indirectLookups           13257                       # Number of indirect predictor lookups. (Count)
system.cpu.branchPred.indirectHits               5513                       # Number of indirect target hits. (Count)
system.cpu.branchPred.indirectMisses             7744                       # Number of indirect misses. (Count)
system.cpu.branchPred.indirectMispredicted            0                       # Number of mispredicted indirect branches. (Count)
system.cpu.branchPred.btb.lookups::NoBranch         2065      0.35%      0.35% # Number of BTB lookups (Count)
system.cpu.branchPred.btb.lookups::Return        16644      2.82%      3.17% # Number of BTB lookups (Count)
system.cpu.branchPred.btb.lookups::CallDirect        21917      3.71%      6.89% # Number of BTB lookups (Count)
system.cpu.branchPred.btb.lookups::CallIndirect         1459      0.25%      7.13% # Number of BTB lookups (Count)
system.cpu.branchPred.btb.lookups::DirectCond       510070     86.46%     93.59% # Number of BTB lookups (Count)
system.cpu.branchPred.btb.lookups::DirectUncond        26008      4.41%     98.00% # Number of BTB lookups (Count)
system.cpu.branchPred.btb.lookups::IndirectCond            0      0.00%     98.00% # Number of BTB lookups (Count)
system.cpu.branchPred.btb.lookups::IndirectUncond        11798      2.00%    100.00% # Number of BTB lookups (Count)
system.cpu.branchPred.btb.lookups::total       589961                       # Number of BTB lookups (Count)
system.cpu.branchPred.btb.misses::NoBranch          400      0.21%      0.21% # Number of BTB misses (Count)
system.cpu.branchPred.btb.misses::Return        16644      8.79%      9.00% # Number of BTB misses (Count)
system.cpu.branchPred.btb.misses::CallDirect         1314      0.69%      9.70% # Number of BTB misses (Count)
system.cpu.branchPred.btb.misses::CallIndirect         1459      0.77%     10.47% # Number of BTB misses (Count)
system.cpu.branchPred.btb.misses::DirectCond       156697     82.76%     93.23% # Number of BTB misses (Count)
system.cpu.branchPred.btb.misses::DirectUncond         1026      0.54%     93.77% # Number of BTB misses (Count)
system.cpu.branchPred.btb.misses::IndirectCond            0      0.00%     93.77% # Number of BTB misses (Count)
system.cpu.branchPred.btb.misses::IndirectUncond        11798      6.23%    100.00% # Number of BTB misses (Count)
system.cpu.branchPred.btb.misses::total        189338                       # Number of BTB misses (Count)
system.cpu.branchPred.btb.updates::NoBranch            0      0.00%      0.00% # Number of BTB updates (Count)
system.cpu.branchPred.btb.updates::Return            0      0.00%      0.00% # Number of BTB updates (Count)
system.cpu.branchPred.btb.updates::CallDirect          838      9.56%      9.56% # Number of BTB updates (Count)
system.cpu.branchPred.btb.updates::CallIndirect            0      0.00%      9.56% # Number of BTB updates (Count)
system.cpu.branchPred.btb.updates::DirectCond         7263     82.84%     92.39% # Number of BTB updates (Count)
system.cpu.branchPred.btb.updates::DirectUncond          667      7.61%    100.00% # Number of BTB updates (Count)
system.cpu.branchPred.btb.updates::IndirectCond            0      0.00%    100.00% # Number of BTB updates (Count)
system.cpu.branchPred.btb.updates::IndirectUncond            0      0.00%    100.00% # Number of BTB updates (Count)
system.cpu.branchPred.btb.updates::total         8768                       # Number of BTB updates (Count)
system.cpu.branchPred.btb.mispredict::NoBranch            0      0.00%      0.00% # Number of BTB mispredictions. No target found or target wrong. (Count)
system.cpu.branchPred.btb.mispredict::Return            0      0.00%      0.00% # Number of BTB mispredictions. No target found or target wrong. (Count)
system.cpu.branchPred.btb.mispredict::CallDirect          838      9.56%      9.56% # Number of BTB mispredictions. No target found or target wrong. (Count)
system.cpu.branchPred.btb.mispredict::CallIndirect            0      0.00%      9.56% # Number of BTB mispredictions. No target found or target wrong. (Count)
system.cpu.branchPred.btb.mispredict::DirectCond         7263     82.84%     92.39% # Number of BTB mispredictions. No target found or target wrong. (Count)
system.cpu.branchPred.btb.mispredict::DirectUncond          667      7.61%    100.00% # Number of BTB mispredictions. No target found or target wrong. (Count)
system.cpu.branchPred.btb.mispredict::IndirectCond            0      0.00%    100.00% # Number of BTB mispredictions. No target found or target wrong. (Count)
system.cpu.branchPred.btb.mispredict::IndirectUncond            0      0.00%    100.00% # Number of BTB mispredictions. No target found or target wrong. (Count)
system.cpu.branchPred.btb.mispredict::total         8768                       # Number of BTB mispredictions. No target found or target wrong. (Count)
system.cpu.branchPred.btb.power_state.pwrStateResidencyTicks::UNDEFINED  21402731585                       # Cumulative time (in ticks) in various power states (Tick)
system.cpu.branchPred.indirectBranchPred.lookups        13257                       # Number of lookups (Count)
system.cpu.branchPred.indirectBranchPred.hits         5513                       # Number of hits of a tag (Count)
system.cpu.branchPred.indirectBranchPred.misses         7744                       # Number of misses (Count)
system.cpu.branchPred.indirectBranchPred.targetRecords         1516                       # Number of targets that where recorded/installed in the cache (Count)
system.cpu.branchPred.indirectBranchPred.indirectRecords        14773                       # Number of indirect branches/calls recorded in the indirect hist (Count)
system.cpu.branchPred.indirectBranchPred.speculativeOverflows            1                       # Number of times more than the allowed capacity for speculative branches/calls where in flight and destroy the path history (Count)
system.cpu.branchPred.ras.pushes                27333                       # Number of times a PC was pushed onto the RAS (Count)
system.cpu.branchPred.ras.pops                  27328                       # Number of times a PC was poped from the RAS (Count)
system.cpu.branchPred.ras.squashes              14641                       # Number of times the stack operation was squashed due to wrong speculation. (Count)
system.cpu.branchPred.ras.used                  12685                       # Number of times the RAS is the provider (Count)
system.cpu.branchPred.ras.correct               12685                       # Number of times the RAS is the provider and the prediction is correct (Count)
system.cpu.branchPred.ras.incorrect                 0                       # Number of times the RAS is the provider and the prediction is wrong (Count)
system.cpu.commit.commitSquashedInsts          906652                       # The number of squashed insts skipped by commit (Count)
system.cpu.commit.commitNonSpecStalls            2508                       # The number of times commit has been forced to stall to communicate backwards (Count)
system.cpu.commit.branchMispredicts             16946                       # The number of times a branch was mispredicted (Count)
system.cpu.commit.numCommittedDist::samples      1469968                       # Number of insts commited each cycle (Count)
system.cpu.commit.numCommittedDist::mean     3.064068                       # Number of insts commited each cycle (Count)
system.cpu.commit.numCommittedDist::stdev     3.208643                       # Number of insts commited each cycle (Count)
system.cpu.commit.numCommittedDist::underflows            0      0.00%      0.00% # Number of insts commited each cycle (Count)
system.cpu.commit.numCommittedDist::0          462364     31.45%     31.45% # Number of insts commited each cycle (Count)
system.cpu.commit.numCommittedDist::1          272330     18.53%     49.98% # Number of insts commited each cycle (Count)
system.cpu.commit.numCommittedDist::2           86732      5.90%     55.88% # Number of insts commited each cycle (Count)
system.cpu.commit.numCommittedDist::3          159107     10.82%     66.70% # Number of insts commited each cycle (Count)
system.cpu.commit.numCommittedDist::4           36925      2.51%     69.22% # Number of insts commited each cycle (Count)
system.cpu.commit.numCommittedDist::5           16042      1.09%     70.31% # Number of insts commited each cycle (Count)
system.cpu.commit.numCommittedDist::6           18991      1.29%     71.60% # Number of insts commited each cycle (Count)
system.cpu.commit.numCommittedDist::7          100705      6.85%     78.45% # Number of insts commited each cycle (Count)
system.cpu.commit.numCommittedDist::8          316772     21.55%    100.00% # Number of insts commited each cycle (Count)
system.cpu.commit.numCommittedDist::overflows            0      0.00%    100.00% # Number of insts commited each cycle (Count)
system.cpu.commit.numCommittedDist::min_value            0                       # Number of insts commited each cycle (Count)
system.cpu.commit.numCommittedDist::max_value            8                       # Number of insts commited each cycle (Count)
system.cpu.commit.numCommittedDist::total      1469968                       # Number of insts commited each cycle (Count)
system.cpu.commit.amos                              0                       # Number of atomic instructions committed (Count)
system.cpu.commit.membars                        1026                       # Number of memory barriers committed (Count)
system.cpu.commit.functionCalls                 12692                       # Number of function calls committed. (Count)
system.cpu.commit.committedInstType_0::No_OpClass        16112      0.36%      0.36% # Class of committed instruction (Count)
system.cpu.commit.committedInstType_0::IntAlu      3559747     79.03%     79.39% # Class of committed instruction (Count)
system.cpu.commit.committedInstType_0::IntMult           94      0.00%     79.39% # Class of committed instruction (Count)
system.cpu.commit.committedInstType_0::IntDiv        39393      0.87%     80.27% # Class of committed instruction (Count)
system.cpu.commit.committedInstType_0::FloatAdd         7308      0.16%     80.43% # Class of committed instruction (Count)
system.cpu.commit.committedInstType_0::FloatCmp            0      0.00%     80.43% # Class of committed instruction (Count)
system.cpu.commit.committedInstType_0::FloatCvt         1712      0.04%     80.47% # Class of committed instruction (Count)
system.cpu.commit.committedInstType_0::FloatMult            0      0.00%     80.47% # Class of committed instruction (Count)
system.cpu.commit.committedInstType_0::FloatMultAcc            0      0.00%     80.47% # Class of committed instruction (Count)
system.cpu.commit.committedInstType_0::FloatDiv            0      0.00%     80.47% # Class of committed instruction (Count)
system.cpu.commit.committedInstType_0::FloatMisc            0      0.00%     80.47% # Class of committed instruction (Count)
system.cpu.commit.committedInstType_0::FloatSqrt            0      0.00%     80.47% # Class of committed instruction (Count)
system.cpu.commit.committedInstType_0::SimdAdd         6810      0.15%     80.62% # Class of committed instruction (Count)
system.cpu.commit.committedInstType_0::SimdAddAcc            0      0.00%     80.62% # Class of committed instruction (Count)
system.cpu.commit.committedInstType_0::SimdAlu        13095      0.29%     80.91% # Class of committed instruction (Count)
system.cpu.commit.committedInstType_0::SimdCmp            6      0.00%     80.91% # Class of committed instruction (Count)
system.cpu.commit.committedInstType_0::SimdCvt        13632      0.30%     81.21% # Class of committed instruction (Count)
system.cpu.commit.committedInstType_0::SimdMisc        14654      0.33%     81.54% # Class of committed instruction (Count)
system.cpu.commit.committedInstType_0::SimdMult            0      0.00%     81.54% # Class of committed instruction (Count)
system.cpu.commit.committedInstType_0::SimdMultAcc            0      0.00%     81.54% # Class of committed instruction (Count)
system.cpu.commit.committedInstType_0::SimdMatMultAcc            0      0.00%     81.54% # Class of committed instruction (Count)
system.cpu.commit.committedInstType_0::SimdShift         1562      0.03%     81.57% # Class of committed instruction (Count)
system.cpu.commit.committedInstType_0::SimdShiftAcc            0      0.00%     81.57% # Class of committed instruction (Count)
system.cpu.commit.committedInstType_0::SimdDiv            0      0.00%     81.57% # Class of committed instruction (Count)
system.cpu.commit.committedInstType_0::SimdSqrt            0      0.00%     81.57% # Class of committed instruction (Count)
system.cpu.commit.committedInstType_0::SimdFloatAdd            1      0.00%     81.57% # Class of committed instruction (Count)
system.cpu.commit.committedInstType_0::SimdFloatAlu            0      0.00%     81.57% # Class of committed instruction (Count)
system.cpu.commit.committedInstType_0::SimdFloatCmp            0      0.00%     81.57% # Class of committed instruction (Count)
system.cpu.commit.committedInstType_0::SimdFloatCvt            2      0.00%     81.57% # Class of committed instruction (Count)
system.cpu.commit.committedInstType_0::SimdFloatDiv            1      0.00%     81.57% # Class of committed instruction (Count)
system.cpu.commit.committedInstType_0::SimdFloatMisc            0      0.00%     81.57% # Class of committed instruction (Count)
system.cpu.commit.committedInstType_0::SimdFloatMult            0      0.00%     81.57% # Class of committed instruction (Count)
system.cpu.commit.committedInstType_0::SimdFloatMultAcc            0      0.00%     81.57% # Class of committed instruction (Count)
system.cpu.commit.committedInstType_0::SimdFloatMatMultAcc            0      0.00%     81.57% # Class of committed instruction (Count)
system.cpu.commit.committedInstType_0::SimdFloatSqrt            0      0.00%     81.57% # Class of committed instruction (Count)
system.cpu.commit.committedInstType_0::SimdReduceAdd            0      0.00%     81.57% # Class of committed instruction (Count)
system.cpu.commit.committedInstType_0::SimdReduceAlu            0      0.00%     81.57% # Class of committed instruction (Count)
system.cpu.commit.committedInstType_0::SimdReduceCmp            0      0.00%     81.57% # Class of committed instruction (Count)
system.cpu.commit.committedInstType_0::SimdFloatReduceAdd            0      0.00%     81.57% # Class of committed instruction (Count)
system.cpu.commit.committedInstType_0::SimdFloatReduceCmp            0      0.00%     81.57% # Class of committed instruction (Count)
system.cpu.commit.committedInstType_0::SimdAes            0      0.00%     81.57% # Class of committed instruction (Count)
system.cpu.commit.committedInstType_0::SimdAesMix            0      0.00%     81.57% # Class of committed instruction (Count)
system.cpu.commit.committedInstType_0::SimdSha1Hash            0      0.00%     81.57% # Class of committed instruction (Count)
system.cpu.commit.committedInstType_0::SimdSha1Hash2            0      0.00%     81.57% # Class of committed instruction (Count)
system.cpu.commit.committedInstType_0::SimdSha256Hash            0      0.00%     81.57% # Class of committed instruction (Count)
system.cpu.commit.committedInstType_0::SimdSha256Hash2            0      0.00%     81.57% # Class of committed instruction (Count)
system.cpu.commit.committedInstType_0::SimdShaSigma2            0      0.00%     81.57% # Class of committed instruction (Count)
system.cpu.commit.committedInstType_0::SimdShaSigma3            0      0.00%     81.57% # Class of committed instruction (Count)
system.cpu.commit.committedInstType_0::SimdPredAlu            0      0.00%     81.57% # Class of committed instruction (Count)
system.cpu.commit.committedInstType_0::Matrix            0      0.00%     81.57% # Class of committed instruction (Count)
system.cpu.commit.committedInstType_0::MatrixMov            0      0.00%     81.57% # Class of committed instruction (Count)
system.cpu.commit.committedInstType_0::MatrixOP            0      0.00%     81.57% # Class of committed instruction (Count)
system.cpu.commit.committedInstType_0::MemRead       574115     12.75%     94.32% # Class of committed instruction (Count)
system.cpu.commit.committedInstType_0::MemWrite       220009      4.88%     99.20% # Class of committed instruction (Count)
system.cpu.commit.committedInstType_0::FloatMemRead        18876      0.42%     99.62% # Class of committed instruction (Count)
system.cpu.commit.committedInstType_0::FloatMemWrite        16953      0.38%    100.00% # Class of committed instruction (Count)
system.cpu.commit.committedInstType_0::IprAccess            0      0.00%    100.00% # Class of committed instruction (Count)
system.cpu.commit.committedInstType_0::InstPrefetch            0      0.00%    100.00% # Class of committed instruction (Count)
system.cpu.commit.committedInstType_0::SimdUnitStrideLoad            0      0.00%    100.00% # Class of committed instruction (Count)
system.cpu.commit.committedInstType_0::SimdUnitStrideStore            0      0.00%    100.00% # Class of committed instruction (Count)
system.cpu.commit.committedInstType_0::SimdUnitStrideMaskLoad            0      0.00%    100.00% # Class of committed instruction (Count)
system.cpu.commit.committedInstType_0::SimdUnitStrideMaskStore            0      0.00%    100.00% # Class of committed instruction (Count)
system.cpu.commit.committedInstType_0::SimdStridedLoad            0      0.00%    100.00% # Class of committed instruction (Count)
system.cpu.commit.committedInstType_0::SimdStridedStore            0      0.00%    100.00% # Class of committed instruction (Count)
system.cpu.commit.committedInstType_0::SimdIndexedLoad            0      0.00%    100.00% # Class of committed instruction (Count)
system.cpu.commit.committedInstType_0::SimdIndexedStore            0      0.00%    100.00% # Class of committed instruction (Count)
system.cpu.commit.committedInstType_0::SimdWholeRegisterLoad            0      0.00%    100.00% # Class of committed instruction (Count)
system.cpu.commit.committedInstType_0::SimdWholeRegisterStore            0      0.00%    100.00% # Class of committed instruction (Count)
system.cpu.commit.committedInstType_0::SimdUnitStrideFaultOnlyFirstLoad            0      0.00%    100.00% # Class of committed instruction (Count)
system.cpu.commit.committedInstType_0::SimdUnitStrideSegmentedLoad            0      0.00%    100.00% # Class of committed instruction (Count)
system.cpu.commit.committedInstType_0::SimdUnitStrideSegmentedStore            0      0.00%    100.00% # Class of committed instruction (Count)
system.cpu.commit.committedInstType_0::SimdExt            0      0.00%    100.00% # Class of committed instruction (Count)
system.cpu.commit.committedInstType_0::SimdFloatExt            0      0.00%    100.00% # Class of committed instruction (Count)
system.cpu.commit.committedInstType_0::SimdConfig            0      0.00%    100.00% # Class of committed instruction (Count)
system.cpu.commit.committedInstType_0::total      4504082                       # Class of committed instruction (Count)
system.cpu.commit.commitEligibleSamples        316772                       # number cycles where commit BW limit reached (Cycle)
system.cpu.commitStats0.numInsts              2558634                       # Number of instructions committed (thread level) (Count)
system.cpu.commitStats0.numOps                4504082                       # Number of ops (including micro ops) committed (thread level) (Count)
system.cpu.commitStats0.numInstsNotNOP        2558634                       # Number of instructions committed excluding NOPs or prefetches (Count)
system.cpu.commitStats0.numOpsNotNOP          4504082                       # Number of Ops (including micro ops) Simulated (Count)
system.cpu.commitStats0.cpi                  0.627384                       # CPI: cycles per instruction (thread level) ((Cycle/Count))
system.cpu.commitStats0.ipc                  1.593920                       # IPC: instructions per cycle (thread level) ((Count/Cycle))
system.cpu.commitStats0.numMemRefs             829953                       # Number of memory references committed (Count)
system.cpu.commitStats0.numFpInsts              99499                       # Number of float instructions (Count)
system.cpu.commitStats0.numIntInsts           4426532                       # Number of integer instructions (Count)
system.cpu.commitStats0.numLoadInsts           592991                       # Number of load instructions (Count)
system.cpu.commitStats0.numStoreInsts          236962                       # Number of store instructions (Count)
system.cpu.commitStats0.numVecInsts                 0                       # Number of vector instructions (Count)
system.cpu.commitStats0.committedInstType::No_OpClass        16112      0.36%      0.36% # Class of committed instruction. (Count)
system.cpu.commitStats0.committedInstType::IntAlu      3559747     79.03%     79.39% # Class of committed instruction. (Count)
system.cpu.commitStats0.committedInstType::IntMult           94      0.00%     79.39% # Class of committed instruction. (Count)
system.cpu.commitStats0.committedInstType::IntDiv        39393      0.87%     80.27% # Class of committed instruction. (Count)
system.cpu.commitStats0.committedInstType::FloatAdd         7308      0.16%     80.43% # Class of committed instruction. (Count)
system.cpu.commitStats0.committedInstType::FloatCmp            0      0.00%     80.43% # Class of committed instruction. (Count)
system.cpu.commitStats0.committedInstType::FloatCvt         1712      0.04%     80.47% # Class of committed instruction. (Count)
system.cpu.commitStats0.committedInstType::FloatMult            0      0.00%     80.47% # Class of committed instruction. (Count)
system.cpu.commitStats0.committedInstType::FloatMultAcc            0      0.00%     80.47% # Class of committed instruction. (Count)
system.cpu.commitStats0.committedInstType::FloatDiv            0      0.00%     80.47% # Class of committed instruction. (Count)
system.cpu.commitStats0.committedInstType::FloatMisc            0      0.00%     80.47% # Class of committed instruction. (Count)
system.cpu.commitStats0.committedInstType::FloatSqrt            0      0.00%     80.47% # Class of committed instruction. (Count)
system.cpu.commitStats0.committedInstType::SimdAdd         6810      0.15%     80.62% # Class of committed instruction. (Count)
system.cpu.commitStats0.committedInstType::SimdAddAcc            0      0.00%     80.62% # Class of committed instruction. (Count)
system.cpu.commitStats0.committedInstType::SimdAlu        13095      0.29%     80.91% # Class of committed instruction. (Count)
system.cpu.commitStats0.committedInstType::SimdCmp            6      0.00%     80.91% # Class of committed instruction. (Count)
system.cpu.commitStats0.committedInstType::SimdCvt        13632      0.30%     81.21% # Class of committed instruction. (Count)
system.cpu.commitStats0.committedInstType::SimdMisc        14654      0.33%     81.54% # Class of committed instruction. (Count)
system.cpu.commitStats0.committedInstType::SimdMult            0      0.00%     81.54% # Class of committed instruction. (Count)
system.cpu.commitStats0.committedInstType::SimdMultAcc            0      0.00%     81.54% # Class of committed instruction. (Count)
system.cpu.commitStats0.committedInstType::SimdMatMultAcc            0      0.00%     81.54% # Class of committed instruction. (Count)
system.cpu.commitStats0.committedInstType::SimdShift         1562      0.03%     81.57% # Class of committed instruction. (Count)
system.cpu.commitStats0.committedInstType::SimdShiftAcc            0      0.00%     81.57% # Class of committed instruction. (Count)
system.cpu.commitStats0.committedInstType::SimdDiv            0      0.00%     81.57% # Class of committed instruction. (Count)
system.cpu.commitStats0.committedInstType::SimdSqrt            0      0.00%     81.57% # Class of committed instruction. (Count)
system.cpu.commitStats0.committedInstType::SimdFloatAdd            1      0.00%     81.57% # Class of committed instruction. (Count)
system.cpu.commitStats0.committedInstType::SimdFloatAlu            0      0.00%     81.57% # Class of committed instruction. (Count)
system.cpu.commitStats0.committedInstType::SimdFloatCmp            0      0.00%     81.57% # Class of committed instruction. (Count)
system.cpu.commitStats0.committedInstType::SimdFloatCvt            2      0.00%     81.57% # Class of committed instruction. (Count)
system.cpu.commitStats0.committedInstType::SimdFloatDiv            1      0.00%     81.57% # Class of committed instruction. (Count)
system.cpu.commitStats0.committedInstType::SimdFloatMisc            0      0.00%     81.57% # Class of committed instruction. (Count)
system.cpu.commitStats0.committedInstType::SimdFloatMult            0      0.00%     81.57% # Class of committed instruction. (Count)
system.cpu.commitStats0.committedInstType::SimdFloatMultAcc            0      0.00%     81.57% # Class of committed instruction. (Count)
system.cpu.commitStats0.committedInstType::SimdFloatMatMultAcc            0      0.00%     81.57% # Class of committed instruction. (Count)
system.cpu.commitStats0.committedInstType::SimdFloatSqrt            0      0.00%     81.57% # Class of committed instruction. (Count)
system.cpu.commitStats0.committedInstType::SimdReduceAdd            0      0.00%     81.57% # Class of committed instruction. (Count)
system.cpu.commitStats0.committedInstType::SimdReduceAlu            0      0.00%     81.57% # Class of committed instruction. (Count)
system.cpu.commitStats0.committedInstType::SimdReduceCmp            0      0.00%     81.57% # Class of committed instruction. (Count)
system.cpu.commitStats0.committedInstType::SimdFloatReduceAdd            0      0.00%     81.57% # Class of committed instruction. (Count)
system.cpu.commitStats0.committedInstType::SimdFloatReduceCmp            0      0.00%     81.57% # Class of committed instruction. (Count)
system.cpu.commitStats0.committedInstType::SimdAes            0      0.00%     81.57% # Class of committed instruction. (Count)
system.cpu.commitStats0.committedInstType::SimdAesMix            0      0.00%     81.57% # Class of committed instruction. (Count)
system.cpu.commitStats0.committedInstType::SimdSha1Hash            0      0.00%     81.57% # Class of committed instruction. (Count)
system.cpu.commitStats0.committedInstType::SimdSha1Hash2            0      0.00%     81.57% # Class of committed instruction. (Count)
system.cpu.commitStats0.committedInstType::SimdSha256Hash            0      0.00%     81.57% # Class of committed instruction. (Count)
system.cpu.commitStats0.committedInstType::SimdSha256Hash2            0      0.00%     81.57% # Class of committed instruction. (Count)
system.cpu.commitStats0.committedInstType::SimdShaSigma2            0      0.00%     81.57% # Class of committed instruction. (Count)
system.cpu.commitStats0.committedInstType::SimdShaSigma3            0      0.00%     81.57% # Class of committed instruction. (Count)
system.cpu.commitStats0.committedInstType::SimdPredAlu            0      0.00%     81.57% # Class of committed instruction. (Count)
system.cpu.commitStats0.committedInstType::Matrix            0      0.00%     81.57% # Class of committed instruction. (Count)
system.cpu.commitStats0.committedInstType::MatrixMov            0      0.00%     81.57% # Class of committed instruction. (Count)
system.cpu.commitStats0.committedInstType::MatrixOP            0      0.00%     81.57% # Class of committed instruction. (Count)
system.cpu.commitStats0.committedInstType::MemRead       574115     12.75%     94.32% # Class of committed instruction. (Count)
system.cpu.commitStats0.committedInstType::MemWrite       220009      4.88%     99.20% # Class of committed instruction. (Count)
system.cpu.commitStats0.committedInstType::FloatMemRead        18876      0.42%     99.62% # Class of committed instruction. (Count)
system.cpu.commitStats0.committedInstType::FloatMemWrite        16953      0.38%    100.00% # Class of committed instruction. (Count)
system.cpu.commitStats0.committedInstType::IprAccess            0      0.00%    100.00% # Class of committed instruction. (Count)
system.cpu.commitStats0.committedInstType::InstPrefetch            0      0.00%    100.00% # Class of committed instruction. (Count)
system.cpu.commitStats0.committedInstType::SimdUnitStrideLoad            0      0.00%    100.00% # Class of committed instruction. (Count)
system.cpu.commitStats0.committedInstType::SimdUnitStrideStore            0      0.00%    100.00% # Class of committed instruction. (Count)
system.cpu.commitStats0.committedInstType::SimdUnitStrideMaskLoad            0      0.00%    100.00% # Class of committed instruction. (Count)
system.cpu.commitStats0.committedInstType::SimdUnitStrideMaskStore            0      0.00%    100.00% # Class of committed instruction. (Count)
system.cpu.commitStats0.committedInstType::SimdStridedLoad            0      0.00%    100.00% # Class of committed instruction. (Count)
system.cpu.commitStats0.committedInstType::SimdStridedStore            0      0.00%    100.00% # Class of committed instruction. (Count)
system.cpu.commitStats0.committedInstType::SimdIndexedLoad            0      0.00%    100.00% # Class of committed instruction. (Count)
system.cpu.commitStats0.committedInstType::SimdIndexedStore            0      0.00%    100.00% # Class of committed instruction. (Count)
system.cpu.commitStats0.committedInstType::SimdWholeRegisterLoad            0      0.00%    100.00% # Class of committed instruction. (Count)
system.cpu.commitStats0.committedInstType::SimdWholeRegisterStore            0      0.00%    100.00% # Class of committed instruction. (Count)
system.cpu.commitStats0.committedInstType::SimdUnitStrideFaultOnlyFirstLoad            0      0.00%    100.00% # Class of committed instruction. (Count)
system.cpu.commitStats0.committedInstType::SimdUnitStrideSegmentedLoad            0      0.00%    100.00% # Class of committed instruction. (Count)
system.cpu.commitStats0.committedInstType::SimdUnitStrideSegmentedStore            0      0.00%    100.00% # Class of committed instruction. (Count)
system.cpu.commitStats0.committedInstType::SimdExt            0      0.00%    100.00% # Class of committed instruction. (Count)
system.cpu.commitStats0.committedInstType::SimdFloatExt            0      0.00%    100.00% # Class of committed instruction. (Count)
system.cpu.commitStats0.committedInstType::SimdConfig            0      0.00%    100.00% # Class of committed instruction. (Count)
system.cpu.commitStats0.committedInstType::total      4504082                       # Class of committed instruction. (Count)
system.cpu.commitStats0.committedControl::IsControl       444373                       # Class of control type instructions committed (Count)
system.cpu.commitStats0.committedControl::IsDirectControl       425384                       # Class of control type instructions committed (Count)
system.cpu.commitStats0.committedControl::IsIndirectControl        18756                       # Class of control type instructions committed (Count)
system.cpu.commitStats0.committedControl::IsCondControl       395112                       # Class of control type instructions committed (Count)
system.cpu.commitStats0.committedControl::IsUncondControl        49028                       # Class of control type instructions committed (Count)
system.cpu.commitStats0.committedControl::IsCall        12692                       # Class of control type instructions committed (Count)
system.cpu.commitStats0.committedControl::IsReturn        12685                       # Class of control type instructions committed (Count)
system.cpu.decode.idleCycles                   254360                       # Number of cycles decode is idle (Cycle)
system.cpu.decode.blockedCycles                552234                       # Number of cycles decode is blocked (Cycle)
system.cpu.decode.runCycles                    562225                       # Number of cycles decode is running (Cycle)
system.cpu.decode.unblockCycles                215751                       # Number of cycles decode is unblocking (Cycle)
system.cpu.decode.squashCycles                  17715                       # Number of cycles decode is squashing (Cycle)
system.cpu.decode.branchResolved               281839                       # Number of times decode resolved a branch (Count)
system.cpu.decode.branchMispred                  1726                       # Number of times decode detected a branch misprediction (Count)
system.cpu.decode.decodedInsts                5662867                       # Number of instructions handled by decode (Count)
system.cpu.decode.squashedInsts                  8898                       # Number of squashed instructions handled by decode (Count)
system.cpu.executeStats0.numInsts             5092924                       # Number of executed instructions (Count)
system.cpu.executeStats0.numNop                     0                       # Number of nop insts executed (Count)
system.cpu.executeStats0.numBranches           482958                       # Number of branches executed (Count)
system.cpu.executeStats0.numLoadInsts          676795                       # Number of load instructions executed (Count)
system.cpu.executeStats0.numStoreInsts         283559                       # Number of stores executed (Count)
system.cpu.executeStats0.instRate            3.172675                       # Inst execution rate ((Count/Cycle))
system.cpu.executeStats0.numCCRegReads        2587782                       # Number of times the CC registers were read (Count)
system.cpu.executeStats0.numCCRegWrites       2309626                       # Number of times the CC registers were written (Count)
system.cpu.executeStats0.numFpRegReads         160618                       # Number of times the floating registers were read (Count)
system.cpu.executeStats0.numFpRegWrites         90093                       # Number of times the floating registers were written (Count)
system.cpu.executeStats0.numIntRegReads       6304313                       # Number of times the integer registers were read (Count)
system.cpu.executeStats0.numIntRegWrites      3879894                       # Number of times the integer registers were written (Count)
system.cpu.executeStats0.numMemRefs            960354                       # Number of memory refs (Count)
system.cpu.executeStats0.numMiscRegReads      1945875                       # Number of times the Misc registers were read (Count)
system.cpu.executeStats0.numMiscRegWrites          963                       # Number of times the Misc registers were written (Count)
system.cpu.executeStats0.numVecAluAccesses            0                       # Number of vector alu accesses (Count)
system.cpu.executeStats0.numDiscardedOps            0                       # Number of ops (including micro ops) which were discarded before commit (Count)
system.cpu.fetch.predictedBranches             319697                       # Number of branches that fetch has predicted taken (Count)
system.cpu.fetch.cycles                       1419058                       # Number of cycles fetch has run and was not squashing or blocked (Cycle)
system.cpu.fetch.squashCycles                   38752                       # Number of cycles fetch has spent squashing (Cycle)
system.cpu.fetch.miscStallCycles                  300                       # Number of cycles fetch has spent waiting on interrupts, or bad addresses, or out of MSHRs (Cycle)
system.cpu.fetch.pendingTrapStallCycles          2769                       # Number of stall cycles due to pending traps (Cycle)
system.cpu.fetch.cacheLines                    285279                       # Number of cache lines fetched (Count)
[...]
system.mem_ctrl.dram.bwRead::total          161609278                       # Total read bandwidth from this memory ((Byte/Second))
system.mem_ctrl.dram.bwInstRead::cpu.inst     35120751                       # Instruction read bandwidth from this memory ((Byte/Second))
system.mem_ctrl.dram.bwInstRead::total       35120751                       # Instruction read bandwidth from this memory ((Byte/Second))
system.mem_ctrl.dram.bwWrite::writebacks     33694391                       # Write bandwidth from this memory ((Byte/Second))
system.mem_ctrl.dram.bwWrite::total          33694391                       # Write bandwidth from this memory ((Byte/Second))
system.mem_ctrl.dram.bwTotal::writebacks     33694391                       # Total bandwidth to/from this memory ((Byte/Second))
system.mem_ctrl.dram.bwTotal::cpu.inst       35120751                       # Total bandwidth to/from this memory ((Byte/Second))
system.mem_ctrl.dram.bwTotal::cpu.data      126488527                       # Total bandwidth to/from this memory ((Byte/Second))
system.mem_ctrl.dram.bwTotal::total         195303669                       # Total bandwidth to/from this memory ((Byte/Second))
system.mem_ctrl.dram.readBursts                 51558                       # Number of DRAM read bursts (Count)
system.mem_ctrl.dram.writeBursts                 9670                       # Number of DRAM write bursts (Count)
system.mem_ctrl.dram.perBankRdBursts::0          3937                       # Per bank write bursts (Count)
system.mem_ctrl.dram.perBankRdBursts::1          3244                       # Per bank write bursts (Count)
system.mem_ctrl.dram.perBankRdBursts::2          1777                       # Per bank write bursts (Count)
system.mem_ctrl.dram.perBankRdBursts::3          3230                       # Per bank write bursts (Count)
system.mem_ctrl.dram.perBankRdBursts::4          2190                       # Per bank write bursts (Count)
system.mem_ctrl.dram.perBankRdBursts::5          4700                       # Per bank write bursts (Count)
system.mem_ctrl.dram.perBankRdBursts::6          3492                       # Per bank write bursts (Count)
system.mem_ctrl.dram.perBankRdBursts::7          4178                       # Per bank write bursts (Count)
system.mem_ctrl.dram.perBankRdBursts::8          3381                       # Per bank write bursts (Count)
system.mem_ctrl.dram.perBankRdBursts::9          3832                       # Per bank write bursts (Count)
system.mem_ctrl.dram.perBankRdBursts::10         2409                       # Per bank write bursts (Count)
system.mem_ctrl.dram.perBankRdBursts::11         1626                       # Per bank write bursts (Count)
system.mem_ctrl.dram.perBankRdBursts::12         3871                       # Per bank write bursts (Count)
system.mem_ctrl.dram.perBankRdBursts::13         3846                       # Per bank write bursts (Count)
system.mem_ctrl.dram.perBankRdBursts::14         4041                       # Per bank write bursts (Count)
system.mem_ctrl.dram.perBankRdBursts::15         1804                       # Per bank write bursts (Count)
system.mem_ctrl.dram.perBankWrBursts::0           361                       # Per bank write bursts (Count)
system.mem_ctrl.dram.perBankWrBursts::1           529                       # Per bank write bursts (Count)
system.mem_ctrl.dram.perBankWrBursts::2           420                       # Per bank write bursts (Count)
system.mem_ctrl.dram.perBankWrBursts::3           419                       # Per bank write bursts (Count)
system.mem_ctrl.dram.perBankWrBursts::4           414                       # Per bank write bursts (Count)
system.mem_ctrl.dram.perBankWrBursts::5           667                       # Per bank write bursts (Count)
system.mem_ctrl.dram.perBankWrBursts::6           797                       # Per bank write bursts (Count)
system.mem_ctrl.dram.perBankWrBursts::7           566                       # Per bank write bursts (Count)
system.mem_ctrl.dram.perBankWrBursts::8           520                       # Per bank write bursts (Count)
system.mem_ctrl.dram.perBankWrBursts::9           813                       # Per bank write bursts (Count)
system.mem_ctrl.dram.perBankWrBursts::10          640                       # Per bank write bursts (Count)
system.mem_ctrl.dram.perBankWrBursts::11          549                       # Per bank write bursts (Count)
system.mem_ctrl.dram.perBankWrBursts::12          777                       # Per bank write bursts (Count)
system.mem_ctrl.dram.perBankWrBursts::13         1358                       # Per bank write bursts (Count)
system.mem_ctrl.dram.perBankWrBursts::14          429                       # Per bank write bursts (Count)
system.mem_ctrl.dram.perBankWrBursts::15          411                       # Per bank write bursts (Count)
system.mem_ctrl.dram.totQLat                730488731                       # Total ticks spent queuing (Tick)
system.mem_ctrl.dram.totBusLat              257790000                       # Total ticks spent in databus transfers (Tick)
system.mem_ctrl.dram.totMemAccLat          1697201231                       # Total ticks spent from burst creation until serviced by the DRAM (Tick)
system.mem_ctrl.dram.avgQLat                 14168.29                       # Average queueing delay per DRAM burst ((Tick/Count))
system.mem_ctrl.dram.avgBusLat                5000.00                       # Average bus latency per DRAM burst ((Tick/Count))
system.mem_ctrl.dram.avgMemAccLat            32918.29                       # Average memory access latency per DRAM burst ((Tick/Count))
system.mem_ctrl.dram.readRowHits                26561                       # Number of row buffer hits during reads (Count)
system.mem_ctrl.dram.writeRowHits                8609                       # Number of row buffer hits during writes (Count)
system.mem_ctrl.dram.readRowHitRate             51.52                       # Row buffer hit rate for reads (Ratio)
system.mem_ctrl.dram.writeRowHitRate            89.03                       # Row buffer hit rate for writes (Ratio)
system.mem_ctrl.dram.bytesPerActivate::samples        26053                       # Bytes accessed per row activation (Byte)
system.mem_ctrl.dram.bytesPerActivate::mean   150.371627                       # Bytes accessed per row activation (Byte)
system.mem_ctrl.dram.bytesPerActivate::gmean   102.910491                       # Bytes accessed per row activation (Byte)
system.mem_ctrl.dram.bytesPerActivate::stdev   196.274277                       # Bytes accessed per row activation (Byte)
system.mem_ctrl.dram.bytesPerActivate::0-127        15747     60.44%     60.44% # Bytes accessed per row activation (Byte)
system.mem_ctrl.dram.bytesPerActivate::128-255         6877     26.40%     86.84% # Bytes accessed per row activation (Byte)
system.mem_ctrl.dram.bytesPerActivate::256-383         1246      4.78%     91.62% # Bytes accessed per row activation (Byte)
system.mem_ctrl.dram.bytesPerActivate::384-511          552      2.12%     93.74% # Bytes accessed per row activation (Byte)
system.mem_ctrl.dram.bytesPerActivate::512-639          331      1.27%     95.01% # Bytes accessed per row activation (Byte)
system.mem_ctrl.dram.bytesPerActivate::640-767          279      1.07%     96.08% # Bytes accessed per row activation (Byte)
system.mem_ctrl.dram.bytesPerActivate::768-895          191      0.73%     96.81% # Bytes accessed per row activation (Byte)
system.mem_ctrl.dram.bytesPerActivate::896-1023          131      0.50%     97.32% # Bytes accessed per row activation (Byte)
system.mem_ctrl.dram.bytesPerActivate::1024-1151          699      2.68%    100.00% # Bytes accessed per row activation (Byte)
system.mem_ctrl.dram.bytesPerActivate::total        26053                       # Bytes accessed per row activation (Byte)
system.mem_ctrl.dram.dramBytesRead            3299712                       # Total bytes read (Byte)
system.mem_ctrl.dram.dramBytesWritten          618880                       # Total bytes written (Byte)
system.mem_ctrl.dram.avgRdBW               154.172470                       # Average DRAM read bandwidth in MiBytes/s ((Byte/Second))
system.mem_ctrl.dram.avgWrBW                28.915935                       # Average DRAM write bandwidth in MiBytes/s ((Byte/Second))
system.mem_ctrl.dram.peakBW                  12800.00                       # Theoretical peak bandwidth in MiByte/s ((Byte/Second))
system.mem_ctrl.dram.busUtil                     1.43                       # Data bus utilization in percentage (Ratio)
system.mem_ctrl.dram.busUtilRead                 1.20                       # Data bus utilization in percentage for reads (Ratio)
system.mem_ctrl.dram.busUtilWrite                0.23                       # Data bus utilization in percentage for writes (Ratio)
system.mem_ctrl.dram.pageHitRate                57.44                       # Row buffer hit rate, read and write combined (Ratio)
system.mem_ctrl.dram.power_state.pwrStateResidencyTicks::UNDEFINED  21402731585                       # Cumulative time (in ticks) in various power states (Tick)
system.mem_ctrl.dram.rank0.actEnergy         99431640                       # Energy for activate commands per rank (pJ) (Joule)
system.mem_ctrl.dram.rank0.preEnergy         52837785                       # Energy for precharge commands per rank (pJ) (Joule)
system.mem_ctrl.dram.rank0.readEnergy       190980720                       # Energy for read commands per rank (pJ) (Joule)
system.mem_ctrl.dram.rank0.writeEnergy       21783060                       # Energy for write commands per rank (pJ) (Joule)
system.mem_ctrl.dram.rank0.refreshEnergy 1689030720.000000                       # Energy for refresh commands per rank (pJ) (Joule)
system.mem_ctrl.dram.rank0.actBackEnergy   7644762480                       # Energy for active background per rank (pJ) (Joule)
system.mem_ctrl.dram.rank0.preBackEnergy   1780954560                       # Energy for precharge background per rank (pJ) (Joule)
system.mem_ctrl.dram.rank0.actPowerDownEnergy            0                       # Energy for active power-down per rank (pJ) (Joule)
system.mem_ctrl.dram.rank0.prePowerDownEnergy            0                       # Energy for precharge power-down per rank (pJ) (Joule)
system.mem_ctrl.dram.rank0.selfRefreshEnergy            0                       # Energy for self refresh per rank (pJ) (Joule)
system.mem_ctrl.dram.rank0.totalEnergy    11479780965                       # Total energy per rank (pJ) (Joule)
system.mem_ctrl.dram.rank0.averagePower    536.369898                       # Core power per rank (mW) (Watt)
system.mem_ctrl.dram.rank0.totalIdleTime            0                       # Total Idle time Per DRAM Rank (Tick)
system.mem_ctrl.dram.rank0.pwrStateTime::IDLE   4559031124                       # Time in different power states (Tick)
system.mem_ctrl.dram.rank0.pwrStateTime::REF    714480000                       # Time in different power states (Tick)
system.mem_ctrl.dram.rank0.pwrStateTime::SREF            0                       # Time in different power states (Tick)
system.mem_ctrl.dram.rank0.pwrStateTime::PRE_PDN            0                       # Time in different power states (Tick)
system.mem_ctrl.dram.rank0.pwrStateTime::ACT  16129220461                       # Time in different power states (Tick)
system.mem_ctrl.dram.rank0.pwrStateTime::ACT_PDN            0                       # Time in different power states (Tick)
system.mem_ctrl.dram.rank1.actEnergy         86622480                       # Energy for activate commands per rank (pJ) (Joule)
system.mem_ctrl.dram.rank1.preEnergy         46033350                       # Energy for precharge commands per rank (pJ) (Joule)
system.mem_ctrl.dram.rank1.readEnergy       177143400                       # Energy for read commands per rank (pJ) (Joule)
system.mem_ctrl.dram.rank1.writeEnergy       28694340                       # Energy for write commands per rank (pJ) (Joule)
system.mem_ctrl.dram.rank1.refreshEnergy 1689030720.000000                       # Energy for refresh commands per rank (pJ) (Joule)
system.mem_ctrl.dram.rank1.actBackEnergy   7765321470                       # Energy for active background per rank (pJ) (Joule)
system.mem_ctrl.dram.rank1.preBackEnergy   1679431200                       # Energy for precharge background per rank (pJ) (Joule)
system.mem_ctrl.dram.rank1.actPowerDownEnergy            0                       # Energy for active power-down per rank (pJ) (Joule)
system.mem_ctrl.dram.rank1.prePowerDownEnergy            0                       # Energy for precharge power-down per rank (pJ) (Joule)
system.mem_ctrl.dram.rank1.selfRefreshEnergy            0                       # Energy for self refresh per rank (pJ) (Joule)
system.mem_ctrl.dram.rank1.totalEnergy    11472276960                       # Total energy per rank (pJ) (Joule)
system.mem_ctrl.dram.rank1.averagePower    536.019289                       # Core power per rank (mW) (Watt)
system.mem_ctrl.dram.rank1.totalIdleTime            0                       # Total Idle time Per DRAM Rank (Tick)
system.mem_ctrl.dram.rank1.pwrStateTime::IDLE   4295062241                       # Time in different power states (Tick)
system.mem_ctrl.dram.rank1.pwrStateTime::REF    714480000                       # Time in different power states (Tick)
system.mem_ctrl.dram.rank1.pwrStateTime::SREF            0                       # Time in different power states (Tick)
system.mem_ctrl.dram.rank1.pwrStateTime::PRE_PDN            0                       # Time in different power states (Tick)
system.mem_ctrl.dram.rank1.pwrStateTime::ACT  16393189344                       # Time in different power states (Tick)
system.mem_ctrl.dram.rank1.pwrStateTime::ACT_PDN            0                       # Time in different power states (Tick)
system.mem_ctrl.power_state.pwrStateResidencyTicks::UNDEFINED  21402731585                       # Cumulative time (in ticks) in various power states (Tick)
system.membus.transDist::ReadResp               44558                       # Transaction distribution (Count)
system.membus.transDist::WritebackDirty         11268                       # Transaction distribution (Count)
system.membus.transDist::CleanEvict             42649                       # Transaction distribution (Count)
system.membus.transDist::UpgradeReq                 3                       # Transaction distribution (Count)
system.membus.transDist::ReadExReq               9490                       # Transaction distribution (Count)
system.membus.transDist::ReadExResp              9490                       # Transaction distribution (Count)
system.membus.transDist::ReadSharedReq          44558                       # Transaction distribution (Count)
system.membus.pktCount_system.cpu.l1d.mem_side_port::system.mem_ctrl.port       126839                       # Packet count per connected requestor and responder (Count)
system.membus.pktCount_system.cpu.l1d.mem_side_port::total       126839                       # Packet count per connected requestor and responder (Count)
system.membus.pktCount_system.cpu.l1i.mem_side_port::system.mem_ctrl.port        35174                       # Packet count per connected requestor and responder (Count)
system.membus.pktCount_system.cpu.l1i.mem_side_port::total        35174                       # Packet count per connected requestor and responder (Count)
system.membus.pktCount::total                  162013                       # Packet count per connected requestor and responder (Count)
system.membus.pktSize_system.cpu.l1d.mem_side_port::system.mem_ctrl.port      3428352                       # Cumulative packet size per connected requestor and responder (Byte)
system.membus.pktSize_system.cpu.l1d.mem_side_port::total      3428352                       # Cumulative packet size per connected requestor and responder (Byte)
system.membus.pktSize_system.cpu.l1i.mem_side_port::system.mem_ctrl.port       751680                       # Cumulative packet size per connected requestor and responder (Byte)
system.membus.pktSize_system.cpu.l1i.mem_side_port::total       751680                       # Cumulative packet size per connected requestor and responder (Byte)
system.membus.pktSize::total                  4180032                       # Cumulative packet size per connected requestor and responder (Byte)
system.membus.snoops                                3                       # Total snoops (Count)
system.membus.snoopTraffic                        192                       # Total snoop traffic (Byte)
system.membus.snoopFanout::samples              54051                       # Request fanout histogram (Count)
system.membus.snoopFanout::mean              0.002035                       # Request fanout histogram (Count)
system.membus.snoopFanout::stdev             0.045067                       # Request fanout histogram (Count)
system.membus.snoopFanout::underflows               0      0.00%      0.00% # Request fanout histogram (Count)
system.membus.snoopFanout::0                    53941     99.80%     99.80% # Request fanout histogram (Count)
system.membus.snoopFanout::1                      110      0.20%    100.00% # Request fanout histogram (Count)
system.membus.snoopFanout::2                        0      0.00%    100.00% # Request fanout histogram (Count)
system.membus.snoopFanout::overflows                0      0.00%    100.00% # Request fanout histogram (Count)
system.membus.snoopFanout::min_value                0                       # Request fanout histogram (Count)
system.membus.snoopFanout::max_value                1                       # Request fanout histogram (Count)
system.membus.snoopFanout::total                54051                       # Request fanout histogram (Count)
system.membus.power_state.pwrStateResidencyTicks::UNDEFINED  21402731585                       # Cumulative time (in ticks) in various power states (Tick)
system.membus.reqLayer2.occupancy          2040482320                       # Layer occupancy (ticks) (Tick)
system.membus.reqLayer2.utilization               0.1                       # Layer utilization (Ratio)
system.membus.respLayer2.occupancy         2863702415                       # Layer occupancy (ticks) (Tick)
system.membus.respLayer2.utilization              0.1                       # Layer utilization (Ratio)
system.membus.respLayer3.occupancy          802372721                       # Layer occupancy (ticks) (Tick)
system.membus.respLayer3.utilization              0.0                       # Layer utilization (Ratio)
system.membus.snoop_filter.totRequests         107968                       # Total number of requests made to the snoop filter. (Count)
system.membus.snoop_filter.hitSingleRequests        53918                       # Number of requests hitting in the snoop filter with a single holder of the requested data. (Count)
system.membus.snoop_filter.hitMultiRequests          109                       # Number of requests hitting in the snoop filter with multiple (>1) holders of the requested data. (Count)
system.membus.snoop_filter.totSnoops                0                       # Total number of snoops made to the snoop filter. (Count)
system.membus.snoop_filter.hitSingleSnoops            0                       # Number of snoops hitting in the snoop filter with a single holder of the requested data. (Count)
system.membus.snoop_filter.hitMultiSnoops            0                       # Number of snoops hitting in the snoop filter with multiple (>1) holders of the requested data. (Count)
system.workload.inst.arm                            0                       # number of arm instructions executed (Count)
system.workload.inst.quiesce                        0                       # number of quiesce instructions executed (Count)

---------- End Simulation Statistics   ----------
