
---------- Begin Simulation Statistics ----------
simSeconds                                   2.019698                       # Number of seconds simulated (Second)
simTicks                                 2019698279614                       # Number of ticks simulated (Tick)
finalTick                                2019698279614                       # Number of ticks from beginning of simulation (restored from checkpoints and never reset) (Tick)
simFreq                                  1000000000000                       # The number of ticks per simulated second ((Tick/Second))
hostSeconds                                   4098.06                       # Real time elapsed on the host (Second)
hostTickRate                                492842412                       # The number of ticks simulated per host second (ticks/s) ((Tick/Second))
hostMemory                                    8737020                       # Number of bytes of host memory used (Byte)
simInsts                                    337344694                       # Number of instructions simulated (Count)
simOps                                      571565254                       # Number of ops (including micro ops) simulated (Count)
hostInstRate                                    82318                       # Simulator instruction rate (inst/s) ((Count/Second))
hostOpRate                                     139472                       # Simulator op (including micro ops) rate (op/s) ((Count/Second))
system.clk_domain.clock                         13333                       # Clock period in ticks (Tick)
system.clk_domain.voltage_domain.voltage            1                       # Voltage in Volts (Volt)
system.cpu.numCycles                        151481159                       # Number of cpu cycles simulated (Cycle)
system.cpu.cpi                               0.449040                       # CPI: cycles per instruction (core level) ((Cycle/Count))
system.cpu.ipc                               2.226975                       # IPC: instructions per cycle (core level) ((Count/Cycle))
system.cpu.numWorkItemsStarted                      0                       # Number of work items this cpu started (Count)
system.cpu.numWorkItemsCompleted                    0                       # Number of work items this cpu completed (Count)
system.cpu.instsAdded                       723254302                       # Number of instructions added to the IQ (excludes non-spec) (Count)
system.cpu.nonSpecInstsAdded                     3316                       # Number of non-speculative instructions added to the IQ (Count)
system.cpu.instsIssued                      677840935                       # Number of instructions issued (Count)
system.cpu.squashedInstsIssued                2539924                       # Number of squashed instructions issued (Count)
system.cpu.squashedInstsExamined            151692287                       # Number of squashed instructions iterated over during squash; mainly for profiling (Count)
system.cpu.squashedOperandsExamined         240673457                       # Number of squashed operands that are examined and possibly removed from graph (Count)
system.cpu.squashedNonSpecRemoved                 413                       # Number of squashed non-spec instructions that were removed (Count)
system.cpu.numIssuedDist::samples           151480148                       # Number of insts issued each cycle (Count)
system.cpu.numIssuedDist::mean               4.474784                       # Number of insts issued each cycle (Count)
system.cpu.numIssuedDist::stdev              2.742698                       # Number of insts issued each cycle (Count)
system.cpu.numIssuedDist::underflows                0      0.00%      0.00% # Number of insts issued each cycle (Count)
system.cpu.numIssuedDist::0                  27054546     17.86%     17.86% # Number of insts issued each cycle (Count)
system.cpu.numIssuedDist::1                   3776007      2.49%     20.35% # Number of insts issued each cycle (Count)
system.cpu.numIssuedDist::2                   7697632      5.08%     25.43% # Number of insts issued each cycle (Count)
system.cpu.numIssuedDist::3                  11015014      7.27%     32.71% # Number of insts issued each cycle (Count)
system.cpu.numIssuedDist::4                  17044810     11.25%     43.96% # Number of insts issued each cycle (Count)
system.cpu.numIssuedDist::5                  20142406     13.30%     57.26% # Number of insts issued each cycle (Count)
system.cpu.numIssuedDist::6                  18845513     12.44%     69.70% # Number of insts issued each cycle (Count)
system.cpu.numIssuedDist::7                  23573486     15.56%     85.26% # Number of insts issued each cycle (Count)
system.cpu.numIssuedDist::8                  22330734     14.74%    100.00% # Number of insts issued each cycle (Count)
system.cpu.numIssuedDist::overflows                 0      0.00%    100.00% # Number of insts issued each cycle (Count)
system.cpu.numIssuedDist::min_value                 0                       # Number of insts issued each cycle (Count)
system.cpu.numIssuedDist::max_value                 8                       # Number of insts issued each cycle (Count)
system.cpu.numIssuedDist::total             151480148                       # Number of insts issued each cycle (Count)
system.cpu.statFuBusy::No_OpClass                   0      0.00%      0.00% # attempts to use FU when none available (Count)
system.cpu.statFuBusy::IntAlu                16124048     97.96%     97.96% # attempts to use FU when none available (Count)
system.cpu.statFuBusy::IntMult                      0      0.00%     97.96% # attempts to use FU when none available (Count)
system.cpu.statFuBusy::IntDiv                       0      0.00%     97.96% # attempts to use FU when none available (Count)
system.cpu.statFuBusy::FloatAdd                     0      0.00%     97.96% # attempts to use FU when none available (Count)
system.cpu.statFuBusy::FloatCmp                     0      0.00%     97.96% # attempts to use FU when none available (Count)
system.cpu.statFuBusy::FloatCvt                     0      0.00%     97.96% # attempts to use FU when none available (Count)
system.cpu.statFuBusy::FloatMult                    0      0.00%     97.96% # attempts to use FU when none available (Count)
system.cpu.statFuBusy::FloatMultAcc                 0      0.00%     97.96% # attempts to use FU when none available (Count)
system.cpu.statFuBusy::FloatDiv                     0      0.00%     97.96% # attempts to use FU when none available (Count)
system.cpu.statFuBusy::FloatMisc                    0      0.00%     97.96% # attempts to use FU when none available (Count)
system.cpu.statFuBusy::FloatSqrt                    0      0.00%     97.96% # attempts to use FU when none available (Count)
system.cpu.statFuBusy::SimdAdd                      1      0.00%     97.96% # attempts to use FU when none available (Count)
system.cpu.statFuBusy::SimdAddAcc                   0      0.00%     97.96% # attempts to use FU when none available (Count)
system.cpu.statFuBusy::SimdAlu                 100615      0.61%     98.57% # attempts to use FU when none available (Count)
system.cpu.statFuBusy::SimdCmp                      2      0.00%     98.57% # attempts to use FU when none available (Count)
system.cpu.statFuBusy::SimdCvt                    166      0.00%     98.57% # attempts to use FU when none available (Count)
system.cpu.statFuBusy::SimdMisc                    17      0.00%     98.57% # attempts to use FU when none available (Count)
system.cpu.statFuBusy::SimdMult                     0      0.00%     98.57% # attempts to use FU when none available (Count)
system.cpu.statFuBusy::SimdMultAcc                  0      0.00%     98.57% # attempts to use FU when none available (Count)
system.cpu.statFuBusy::SimdMatMultAcc               0      0.00%     98.57% # attempts to use FU when none available (Count)
system.cpu.statFuBusy::SimdShift                   31      0.00%     98.57% # attempts to use FU when none available (Count)
system.cpu.statFuBusy::SimdShiftAcc                 0      0.00%     98.57% # attempts to use FU when none available (Count)
system.cpu.statFuBusy::SimdDiv                      0      0.00%     98.57% # attempts to use FU when none available (Count)
system.cpu.statFuBusy::SimdSqrt                     0      0.00%     98.57% # attempts to use FU when none available (Count)
system.cpu.statFuBusy::SimdFloatAdd                 0      0.00%     98.57% # attempts to use FU when none available (Count)
system.cpu.statFuBusy::SimdFloatAlu                 0      0.00%     98.57% # attempts to use FU when none available (Count)
system.cpu.statFuBusy::SimdFloatCmp                 0      0.00%     98.57% # attempts to use FU when none available (Count)
system.cpu.statFuBusy::SimdFloatCvt                 0      0.00%     98.57% # attempts to use FU when none available (Count)
system.cpu.statFuBusy::SimdFloatDiv                 0      0.00%     98.57% # attempts to use FU when none available (Count)
system.cpu.statFuBusy::SimdFloatMisc                0      0.00%     98.57% # attempts to use FU when none available (Count)
system.cpu.statFuBusy::SimdFloatMult                0      0.00%     98.57% # attempts to use FU when none available (Count)
system.cpu.statFuBusy::SimdFloatMultAcc             0      0.00%     98.57% # attempts to use FU when none available (Count)
system.cpu.statFuBusy::SimdFloatMatMultAcc            0      0.00%     98.57% # attempts to use FU when none available (Count)
system.cpu.statFuBusy::SimdFloatSqrt                0      0.00%     98.57% # attempts to use FU when none available (Count)
system.cpu.statFuBusy::SimdReduceAdd                0      0.00%     98.57% # attempts to use FU when none available (Count)
system.cpu.statFuBusy::SimdReduceAlu                0      0.00%     98.57% # attempts to use FU when none available (Count)
system.cpu.statFuBusy::SimdReduceCmp                0      0.00%     98.57% # attempts to use FU when none available (Count)
system.cpu.statFuBusy::SimdFloatReduceAdd            0      0.00%     98.57% # attempts to use FU when none available (Count)
system.cpu.statFuBusy::SimdFloatReduceCmp            0      0.00%     98.57% # attempts to use FU when none available (Count)
system.cpu.statFuBusy::SimdAes                      0      0.00%     98.57% # attempts to use FU when none available (Count)
system.cpu.statFuBusy::SimdAesMix                   0      0.00%     98.57% # attempts to use FU when none available (Count)
system.cpu.statFuBusy::SimdSha1Hash                 0      0.00%     98.57% # attempts to use FU when none available (Count)
system.cpu.statFuBusy::SimdSha1Hash2                0      0.00%     98.57% # attempts to use FU when none available (Count)
system.cpu.statFuBusy::SimdSha256Hash               0      0.00%     98.57% # attempts to use FU when none available (Count)
system.cpu.statFuBusy::SimdSha256Hash2              0      0.00%     98.57% # attempts to use FU when none available (Count)
system.cpu.statFuBusy::SimdShaSigma2                0      0.00%     98.57% # attempts to use FU when none available (Count)
system.cpu.statFuBusy::SimdShaSigma3                0      0.00%     98.57% # attempts to use FU when none available (Count)
system.cpu.statFuBusy::SimdPredAlu                  0      0.00%     98.57% # attempts to use FU when none available (Count)
system.cpu.statFuBusy::Matrix                       0      0.00%     98.57% # attempts to use FU when none available (Count)
system.cpu.statFuBusy::MatrixMov                    0      0.00%     98.57% # attempts to use FU when none available (Count)
system.cpu.statFuBusy::MatrixOP                     0      0.00%     98.57% # attempts to use FU when none available (Count)
system.cpu.statFuBusy::MemRead                 219514      1.33%     99.91% # attempts to use FU when none available (Count)
system.cpu.statFuBusy::MemWrite                 14389      0.09%     99.99% # attempts to use FU when none available (Count)
system.cpu.statFuBusy::FloatMemRead               609      0.00%    100.00% # attempts to use FU when none available (Count)
system.cpu.statFuBusy::FloatMemWrite              428      0.00%    100.00% # attempts to use FU when none available (Count)
system.cpu.statFuBusy::IprAccess                    0      0.00%    100.00% # attempts to use FU when none available (Count)
system.cpu.statFuBusy::InstPrefetch                 0      0.00%    100.00% # attempts to use FU when none available (Count)
system.cpu.statFuBusy::SimdUnitStrideLoad            0      0.00%    100.00% # attempts to use FU when none available (Count)
system.cpu.statFuBusy::SimdUnitStrideStore            0      0.00%    100.00% # attempts to use FU when none available (Count)
system.cpu.statFuBusy::SimdUnitStrideMaskLoad            0      0.00%    100.00% # attempts to use FU when none available (Count)
system.cpu.statFuBusy::SimdUnitStrideMaskStore            0      0.00%    100.00% # attempts to use FU when none available (Count)
system.cpu.statFuBusy::SimdStridedLoad              0      0.00%    100.00% # attempts to use FU when none available (Count)
system.cpu.statFuBusy::SimdStridedStore             0      0.00%    100.00% # attempts to use FU when none available (Count)
system.cpu.statFuBusy::SimdIndexedLoad              0      0.00%    100.00% # attempts to use FU when none available (Count)
system.cpu.statFuBusy::SimdIndexedStore             0      0.00%    100.00% # attempts to use FU when none available (Count)
system.cpu.statFuBusy::SimdWholeRegisterLoad            0      0.00%    100.00% # attempts to use FU when none available (Count)
system.cpu.statFuBusy::SimdWholeRegisterStore            0      0.00%    100.00% # attempts to use FU when none available (Count)
system.cpu.statFuBusy::SimdUnitStrideFaultOnlyFirstLoad            0      0.00%    100.00% # attempts to use FU when none available (Count)
system.cpu.statFuBusy::SimdUnitStrideSegmentedLoad            0      0.00%    100.00% # attempts to use FU when none available (Count)
system.cpu.statFuBusy::SimdUnitStrideSegmentedStore            0      0.00%    100.00% # attempts to use FU when none available (Count)
system.cpu.statFuBusy::SimdExt                      0      0.00%    100.00% # attempts to use FU when none available (Count)
system.cpu.statFuBusy::SimdFloatExt                 0      0.00%    100.00% # attempts to use FU when none available (Count)
system.cpu.statFuBusy::SimdConfig                   0      0.00%    100.00% # attempts to use FU when none available (Count)
system.cpu.statIssuedInstType_0::No_OpClass     13138098      1.94%      1.94% # Number of instructions issued per FU type, per thread (Count)
system.cpu.statIssuedInstType_0::IntAlu     524464711     77.37%     79.31% # Number of instructions issued per FU type, per thread (Count)
system.cpu.statIssuedInstType_0::IntMult       805956      0.12%     79.43% # Number of instructions issued per FU type, per thread (Count)
system.cpu.statIssuedInstType_0::IntDiv         43370      0.01%     79.44% # Number of instructions issued per FU type, per thread (Count)
system.cpu.statIssuedInstType_0::FloatAdd       513496      0.08%     79.51% # Number of instructions issued per FU type, per thread (Count)
system.cpu.statIssuedInstType_0::FloatCmp            0      0.00%     79.51% # Number of instructions issued per FU type, per thread (Count)
system.cpu.statIssuedInstType_0::FloatCvt         1322      0.00%     79.51% # Number of instructions issued per FU type, per thread (Count)
system.cpu.statIssuedInstType_0::FloatMult            0      0.00%     79.51% # Number of instructions issued per FU type, per thread (Count)
system.cpu.statIssuedInstType_0::FloatMultAcc            0      0.00%     79.51% # Number of instructions issued per FU type, per thread (Count)
system.cpu.statIssuedInstType_0::FloatDiv            0      0.00%     79.51% # Number of instructions issued per FU type, per thread (Count)
system.cpu.statIssuedInstType_0::FloatMisc            0      0.00%     79.51% # Number of instructions issued per FU type, per thread (Count)
system.cpu.statIssuedInstType_0::FloatSqrt            0      0.00%     79.51% # Number of instructions issued per FU type, per thread (Count)
system.cpu.statIssuedInstType_0::SimdAdd         7439      0.00%     79.51% # Number of instructions issued per FU type, per thread (Count)
system.cpu.statIssuedInstType_0::SimdAddAcc            0      0.00%     79.51% # Number of instructions issued per FU type, per thread (Count)
system.cpu.statIssuedInstType_0::SimdAlu      1227141      0.18%     79.69% # Number of instructions issued per FU type, per thread (Count)
system.cpu.statIssuedInstType_0::SimdCmp           16      0.00%     79.69% # Number of instructions issued per FU type, per thread (Count)
system.cpu.statIssuedInstType_0::SimdCvt       218062      0.03%     79.73% # Number of instructions issued per FU type, per thread (Count)
system.cpu.statIssuedInstType_0::SimdMisc       418183      0.06%     79.79% # Number of instructions issued per FU type, per thread (Count)
system.cpu.statIssuedInstType_0::SimdMult            0      0.00%     79.79% # Number of instructions issued per FU type, per thread (Count)
system.cpu.statIssuedInstType_0::SimdMultAcc            0      0.00%     79.79% # Number of instructions issued per FU type, per thread (Count)
system.cpu.statIssuedInstType_0::SimdMatMultAcc            0      0.00%     79.79% # Number of instructions issued per FU type, per thread (Count)
system.cpu.statIssuedInstType_0::SimdShift         4046      0.00%     79.79% # Number of instructions issued per FU type, per thread (Count)
system.cpu.statIssuedInstType_0::SimdShiftAcc            0      0.00%     79.79% # Number of instructions issued per FU type, per thread (Count)
system.cpu.statIssuedInstType_0::SimdDiv            0      0.00%     79.79% # Number of instructions issued per FU type, per thread (Count)
system.cpu.statIssuedInstType_0::SimdSqrt            0      0.00%     79.79% # Number of instructions issued per FU type, per thread (Count)
system.cpu.statIssuedInstType_0::SimdFloatAdd       100825      0.01%     79.80% # Number of instructions issued per FU type, per thread (Count)
system.cpu.statIssuedInstType_0::SimdFloatAlu            0      0.00%     79.80% # Number of instructions issued per FU type, per thread (Count)
system.cpu.statIssuedInstType_0::SimdFloatCmp            0      0.00%     79.80% # Number of instructions issued per FU type, per thread (Count)
system.cpu.statIssuedInstType_0::SimdFloatCvt       302443      0.04%     79.85% # Number of instructions issued per FU type, per thread (Count)
system.cpu.statIssuedInstType_0::SimdFloatDiv       100825      0.01%     79.86% # Number of instructions issued per FU type, per thread (Count)
system.cpu.statIssuedInstType_0::SimdFloatMisc            0      0.00%     79.86% # Number of instructions issued per FU type, per thread (Count)
system.cpu.statIssuedInstType_0::SimdFloatMult            0      0.00%     79.86% # Number of instructions issued per FU type, per thread (Count)
system.cpu.statIssuedInstType_0::SimdFloatMultAcc            0      0.00%     79.86% # Number of instructions issued per FU type, per thread (Count)
system.cpu.statIssuedInstType_0::SimdFloatMatMultAcc            0      0.00%     79.86% # Number of instructions issued per FU type, per thread (Count)
system.cpu.statIssuedInstType_0::SimdFloatSqrt            0      0.00%     79.86% # Number of instructions issued per FU type, per thread (Count)
system.cpu.statIssuedInstType_0::SimdReduceAdd            0      0.00%     79.86% # Number of instructions issued per FU type, per thread (Count)
system.cpu.statIssuedInstType_0::SimdReduceAlu            0      0.00%     79.86% # Number of instructions issued per FU type, per thread (Count)
system.cpu.statIssuedInstType_0::SimdReduceCmp            0      0.00%     79.86% # Number of instructions issued per FU type, per thread (Count)
system.cpu.statIssuedInstType_0::SimdFloatReduceAdd            0      0.00%     79.86% # Number of instructions issued per FU type, per thread (Count)
system.cpu.statIssuedInstType_0::SimdFloatReduceCmp            0      0.00%     79.86% # Number of instructions issued per FU type, per thread (Count)
system.cpu.statIssuedInstType_0::SimdAes            0      0.00%     79.86% # Number of instructions issued per FU type, per thread (Count)
system.cpu.statIssuedInstType_0::SimdAesMix            0      0.00%     79.86% # Number of instructions issued per FU type, per thread (Count)
system.cpu.statIssuedInstType_0::SimdSha1Hash            0      0.00%     79.86% # Number of instructions issued per FU type, per thread (Count)
system.cpu.statIssuedInstType_0::SimdSha1Hash2            0      0.00%     79.86% # Number of instructions issued per FU type, per thread (Count)
system.cpu.statIssuedInstType_0::SimdSha256Hash            0      0.00%     79.86% # Number of instructions issued per FU type, per thread (Count)
system.cpu.statIssuedInstType_0::SimdSha256Hash2            0      0.00%     79.86% # Number of instructions issued per FU type, per thread (Count)
system.cpu.statIssuedInstType_0::SimdShaSigma2            0      0.00%     79.86% # Number of instructions issued per FU type, per thread (Count)
system.cpu.statIssuedInstType_0::SimdShaSigma3            0      0.00%     79.86% # Number of instructions issued per FU type, per thread (Count)
system.cpu.statIssuedInstType_0::SimdPredAlu            0      0.00%     79.86% # Number of instructions issued per FU type, per thread (Count)
system.cpu.statIssuedInstType_0::Matrix             0      0.00%     79.86% # Number of instructions issued per FU type, per thread (Count)
system.cpu.statIssuedInstType_0::MatrixMov            0      0.00%     79.86% # Number of instructions issued per FU type, per thread (Count)
system.cpu.statIssuedInstType_0::MatrixOP            0      0.00%     79.86% # Number of instructions issued per FU type, per thread (Count)
system.cpu.statIssuedInstType_0::MemRead     84735579     12.50%     92.36% # Number of instructions issued per FU type, per thread (Count)
system.cpu.statIssuedInstType_0::MemWrite     50709519      7.48%     99.85% # Number of instructions issued per FU type, per thread (Count)
system.cpu.statIssuedInstType_0::FloatMemRead       933183      0.14%     99.98% # Number of instructions issued per FU type, per thread (Count)
system.cpu.statIssuedInstType_0::FloatMemWrite       116721      0.02%    100.00% # Number of instructions issued per FU type, per thread (Count)
system.cpu.statIssuedInstType_0::IprAccess            0      0.00%    100.00% # Number of instructions issued per FU type, per thread (Count)
system.cpu.statIssuedInstType_0::InstPrefetch            0      0.00%    100.00% # Number of instructions issued per FU type, per thread (Count)
system.cpu.statIssuedInstType_0::SimdUnitStrideLoad            0      0.00%    100.00% # Number of instructions issued per FU type, per thread (Count)
system.cpu.statIssuedInstType_0::SimdUnitStrideStore            0      0.00%    100.00% # Number of instructions issued per FU type, per thread (Count)
system.cpu.statIssuedInstType_0::SimdUnitStrideMaskLoad            0      0.00%    100.00% # Number of instructions issued per FU type, per thread (Count)
system.cpu.statIssuedInstType_0::SimdUnitStrideMaskStore            0      0.00%    100.00% # Number of instructions issued per FU type, per thread (Count)
system.cpu.statIssuedInstType_0::SimdStridedLoad            0      0.00%    100.00% # Number of instructions issued per FU type, per thread (Count)
system.cpu.statIssuedInstType_0::SimdStridedStore            0      0.00%    100.00% # Number of instructions issued per FU type, per thread (Count)
system.cpu.statIssuedInstType_0::SimdIndexedLoad            0      0.00%    100.00% # Number of instructions issued per FU type, per thread (Count)
system.cpu.statIssuedInstType_0::SimdIndexedStore            0      0.00%    100.00% # Number of instructions issued per FU type, per thread (Count)
system.cpu.statIssuedInstType_0::SimdWholeRegisterLoad            0      0.00%    100.00% # Number of instructions issued per FU type, per thread (Count)
system.cpu.statIssuedInstType_0::SimdWholeRegisterStore            0      0.00%    100.00% # Number of instructions issued per FU type, per thread (Count)
system.cpu.statIssuedInstType_0::SimdUnitStrideFaultOnlyFirstLoad            0      0.00%    100.00% # Number of instructions issued per FU type, per thread (Count)
system.cpu.statIssuedInstType_0::SimdUnitStrideSegmentedLoad            0      0.00%    100.00% # Number of instructions issued per FU type, per thread (Count)
system.cpu.statIssuedInstType_0::SimdUnitStrideSegmentedStore            0      0.00%    100.00% # Number of instructions issued per FU type, per thread (Count)
system.cpu.statIssuedInstType_0::SimdExt            0      0.00%    100.00% # Number of instructions issued per FU type, per thread (Count)
system.cpu.statIssuedInstType_0::SimdFloatExt            0      0.00%    100.00% # Number of instructions issued per FU type, per thread (Count)
system.cpu.statIssuedInstType_0::SimdConfig            0      0.00%    100.00% # Number of instructions issued per FU type, per thread (Count)
system.cpu.statIssuedInstType_0::total      677840935                       # Number of instructions issued per FU type, per thread (Count)
system.cpu.issueRate                         4.474754                       # Inst issue rate ((Count/Cycle))
system.cpu.fuBusy                            16459820                       # FU busy when requested (Count)
system.cpu.fuBusyRate                        0.024283                       # FU busy rate (busy events/executed inst) ((Count/Count))
system.cpu.intInstQueueReads               1518162900                       # Number of integer instruction queue reads (Count)
system.cpu.intInstQueueWrites               869437457                       # Number of integer instruction queue writes (Count)
system.cpu.intInstQueueWakeupAccesses       665740039                       # Number of integer instruction queue wakeup accesses (Count)
system.cpu.fpInstQueueReads                   7998856                       # Number of floating instruction queue reads (Count)
system.cpu.fpInstQueueWrites                  5522309                       # Number of floating instruction queue writes (Count)
system.cpu.fpInstQueueWakeupAccesses          3842189                       # Number of floating instruction queue wakeup accesses (Count)
system.cpu.vecInstQueueReads                        0                       # Number of vector instruction queue reads (Count)
system.cpu.vecInstQueueWrites                       0                       # Number of vector instruction queue writes (Count)
system.cpu.vecInstQueueWakeupAccesses               0                       # Number of vector instruction queue wakeup accesses (Count)
system.cpu.intAluAccesses                   677112597                       # Number of integer alu accesses (Count)
system.cpu.fpAluAccesses                      4050060                       # Number of floating point alu accesses (Count)
system.cpu.vecAluAccesses                           0                       # Number of vector alu accesses (Count)
system.cpu.numSquashedInsts                   6209984                       # Number of squashed instructions skipped in execute (Count)
system.cpu.numSwp                                   0                       # Number of swp insts executed (Count)
system.cpu.timesIdled                             303                       # Number of times that the entire CPU went into an idle state and unscheduled itself (Count)
system.cpu.idleCycles                            1011                       # Total number of cycles that the CPU has spent unscheduled due to idling (Cycle)
system.cpu.MemDepUnit__0.insertedLoads       95781542                       # Number of loads inserted to the mem dependence unit. (Count)
system.cpu.MemDepUnit__0.insertedStores      57801032                       # Number of stores inserted to the mem dependence unit. (Count)
system.cpu.MemDepUnit__0.conflictingLoads     41511021                       # Number of conflicting loads. (Count)
system.cpu.MemDepUnit__0.conflictingStores     24318552                       # Number of conflicting stores. (Count)
system.cpu.MemDepUnit__1.insertedLoads              0                       # Number of loads inserted to the mem dependence unit. (Count)
system.cpu.MemDepUnit__1.insertedStores             0                       # Number of stores inserted to the mem dependence unit. (Count)
system.cpu.MemDepUnit__1.conflictingLoads            0                       # Number of conflicting loads. (Count)
system.cpu.MemDepUnit__1.conflictingStores            0                       # Number of conflicting stores. (Count)
system.cpu.MemDepUnit__2.insertedLoads              0                       # Number of loads inserted to the mem dependence unit. (Count)
system.cpu.MemDepUnit__2.insertedStores             0                       # Number of stores inserted to the mem dependence unit. (Count)
system.cpu.MemDepUnit__2.conflictingLoads            0                       # Number of conflicting loads. (Count)
system.cpu.MemDepUnit__2.conflictingStores            0                       # Number of conflicting stores. (Count)
system.cpu.MemDepUnit__3.insertedLoads              0                       # Number of loads inserted to the mem dependence unit. (Count)
system.cpu.MemDepUnit__3.insertedStores             0                       # Number of stores inserted to the mem dependence unit. (Count)
system.cpu.MemDepUnit__3.conflictingLoads            0                       # Number of conflicting loads. (Count)
system.cpu.MemDepUnit__3.conflictingStores            0                       # Number of conflicting stores. (Count)
system.cpu.branchPred.lookups_0::NoBranch         2958      0.00%      0.00% # Number of BP lookups (Count)
system.cpu.branchPred.lookups_0::Return       4355273      4.42%      4.42% # Number of BP lookups (Count)
system.cpu.branchPred.lookups_0::CallDirect      4361368      4.43%      8.85% # Number of BP lookups (Count)
system.cpu.branchPred.lookups_0::CallIndirect         1368      0.00%      8.85% # Number of BP lookups (Count)
system.cpu.branchPred.lookups_0::DirectCond     77742124     78.92%     87.78% # Number of BP lookups (Count)
system.cpu.branchPred.lookups_0::DirectUncond      8191523      8.32%     96.09% # Number of BP lookups (Count)
system.cpu.branchPred.lookups_0::IndirectCond            0      0.00%     96.09% # Number of BP lookups (Count)
system.cpu.branchPred.lookups_0::IndirectUncond      3847040      3.91%    100.00% # Number of BP lookups (Count)
system.cpu.branchPred.lookups_0::total       98501654                       # Number of BP lookups (Count)
system.cpu.branchPred.squashes_0::NoBranch         2645      0.01%      0.01% # Number of branches that got squashed (completely removed) as an earlier branch was mispredicted. (Count)
system.cpu.branchPred.squashes_0::Return      1014629      3.89%      3.90% # Number of branches that got squashed (completely removed) as an earlier branch was mispredicted. (Count)
system.cpu.branchPred.squashes_0::CallDirect      1021322      3.91%      7.81% # Number of branches that got squashed (completely removed) as an earlier branch was mispredicted. (Count)
system.cpu.branchPred.squashes_0::CallIndirect          763      0.00%      7.81% # Number of branches that got squashed (completely removed) as an earlier branch was mispredicted. (Count)
system.cpu.branchPred.squashes_0::DirectCond     19207455     73.57%     81.39% # Number of branches that got squashed (completely removed) as an earlier branch was mispredicted. (Count)
system.cpu.branchPred.squashes_0::DirectUncond      2731697     10.46%     91.85% # Number of branches that got squashed (completely removed) as an earlier branch was mispredicted. (Count)
system.cpu.branchPred.squashes_0::IndirectCond            0      0.00%     91.85% # Number of branches that got squashed (completely removed) as an earlier branch was mispredicted. (Count)
system.cpu.branchPred.squashes_0::IndirectUncond      2127614      8.15%    100.00% # Number of branches that got squashed (completely removed) as an earlier branch was mispredicted. (Count)
system.cpu.branchPred.squashes_0::total      26106125                       # Number of branches that got squashed (completely removed) as an earlier branch was mispredicted. (Count)
system.cpu.branchPred.corrected_0::NoBranch          508      0.02%      0.02% # Number of branches that got corrected but not yet commited. Branches get corrected by decode or after execute. Also a branch misprediction can be detected out-of-order. Therefore, a corrected branch might not end up beeing committed in case an even earlier branch was mispredicted (Count)
system.cpu.branchPred.corrected_0::Return           15      0.00%      0.02% # Number of branches that got corrected but not yet commited. Branches get corrected by decode or after execute. Also a branch misprediction can be detected out-of-order. Therefore, a corrected branch might not end up beeing committed in case an even earlier branch was mispredicted (Count)
system.cpu.branchPred.corrected_0::CallDirect       303300     12.98%     13.00% # Number of branches that got corrected but not yet commited. Branches get corrected by decode or after execute. Also a branch misprediction can be detected out-of-order. Therefore, a corrected branch might not end up beeing committed in case an even earlier branch was mispredicted (Count)
system.cpu.branchPred.corrected_0::CallIndirect          243      0.01%     13.01% # Number of branches that got corrected but not yet commited. Branches get corrected by decode or after execute. Also a branch misprediction can be detected out-of-order. Therefore, a corrected branch might not end up beeing committed in case an even earlier branch was mispredicted (Count)
system.cpu.branchPred.corrected_0::DirectCond      1930059     82.60%     95.61% # Number of branches that got corrected but not yet commited. Branches get corrected by decode or after execute. Also a branch misprediction can be detected out-of-order. Therefore, a corrected branch might not end up beeing committed in case an even earlier branch was mispredicted (Count)
system.cpu.branchPred.corrected_0::DirectUncond       101456      4.34%     99.95% # Number of branches that got corrected but not yet commited. Branches get corrected by decode or after execute. Also a branch misprediction can be detected out-of-order. Therefore, a corrected branch might not end up beeing committed in case an even earlier branch was mispredicted (Count)
system.cpu.branchPred.corrected_0::IndirectCond            0      0.00%     99.95% # Number of branches that got corrected but not yet commited. Branches get corrected by decode or after execute. Also a branch misprediction can be detected out-of-order. Therefore, a corrected branch might not end up beeing committed in case an even earlier branch was mispredicted (Count)
system.cpu.branchPred.corrected_0::IndirectUncond         1171      0.05%    100.00% # Number of branches that got corrected but not yet commited. Branches get corrected by decode or after execute. Also a branch misprediction can be detected out-of-order. Therefore, a corrected branch might not end up beeing committed in case an even earlier branch was mispredicted (Count)
system.cpu.branchPred.corrected_0::total      2336752                       # Number of branches that got corrected but not yet commited. Branches get corrected by decode or after execute. Also a branch misprediction can be detected out-of-order. Therefore, a corrected branch might not end up beeing committed in case an even earlier branch was mispredicted (Count)
system.cpu.branchPred.earlyResteers_0::NoBranch            0                       # Number of branches that got redirected after decode. (Count)
system.cpu.branchPred.earlyResteers_0::Return            0                       # Number of branches that got redirected after decode. (Count)
system.cpu.branchPred.earlyResteers_0::CallDirect            0                       # Number of branches that got redirected after decode. (Count)
system.cpu.branchPred.earlyResteers_0::CallIndirect            0                       # Number of branches that got redirected after decode. (Count)
system.cpu.branchPred.earlyResteers_0::DirectCond            0                       # Number of branches that got redirected after decode. (Count)
system.cpu.branchPred.earlyResteers_0::DirectUncond            0                       # Number of branches that got redirected after decode. (Count)
system.cpu.branchPred.earlyResteers_0::IndirectCond            0                       # Number of branches that got redirected after decode. (Count)
system.cpu.branchPred.earlyResteers_0::IndirectUncond            0                       # Number of branches that got redirected after decode. (Count)
system.cpu.branchPred.earlyResteers_0::total            0                       # Number of branches that got redirected after decode. (Count)
system.cpu.branchPred.committed_0::NoBranch          313      0.00%      0.00% # Number of branches finally committed  (Count)
system.cpu.branchPred.committed_0::Return      3340643      4.61%      4.61% # Number of branches finally committed  (Count)
system.cpu.branchPred.committed_0::CallDirect      3340043      4.61%      9.23% # Number of branches finally committed  (Count)
system.cpu.branchPred.committed_0::CallIndirect          605      0.00%      9.23% # Number of branches finally committed  (Count)
system.cpu.branchPred.committed_0::DirectCond     58534668     80.85%     90.08% # Number of branches finally committed  (Count)
system.cpu.branchPred.committed_0::DirectUncond      5459825      7.54%     97.62% # Number of branches finally committed  (Count)
system.cpu.branchPred.committed_0::IndirectCond            0      0.00%     97.62% # Number of branches finally committed  (Count)
system.cpu.branchPred.committed_0::IndirectUncond      1719425      2.38%    100.00% # Number of branches finally committed  (Count)
system.cpu.branchPred.committed_0::total     72395522                       # Number of branches finally committed  (Count)
system.cpu.branchPred.mispredicted_0::NoBranch          313      0.02%      0.02% # Number of committed branches that were mispredicted. (Count)
system.cpu.branchPred.mispredicted_0::Return            5      0.00%      0.02% # Number of committed branches that were mispredicted. (Count)
system.cpu.branchPred.mispredicted_0::CallDirect       101330      5.54%      5.56% # Number of committed branches that were mispredicted. (Count)
system.cpu.branchPred.mispredicted_0::CallIndirect          219      0.01%      5.57% # Number of committed branches that were mispredicted. (Count)
system.cpu.branchPred.mispredicted_0::DirectCond      1625817     88.86%     94.42% # Number of committed branches that were mispredicted. (Count)
system.cpu.branchPred.mispredicted_0::DirectUncond       100949      5.52%     99.94% # Number of committed branches that were mispredicted. (Count)
system.cpu.branchPred.mispredicted_0::IndirectCond            0      0.00%     99.94% # Number of committed branches that were mispredicted. (Count)
system.cpu.branchPred.mispredicted_0::IndirectUncond         1106      0.06%    100.00% # Number of committed branches that were mispredicted. (Count)
system.cpu.branchPred.mispredicted_0::total      1829739                       # Number of committed branches that were mispredicted. (Count)
system.cpu.branchPred.targetProvider_0::NoTarget     32321925     32.81%     32.81% # The component providing the target for taken branches (Count)
system.cpu.branchPred.targetProvider_0::BTB     60000974     60.91%     93.73% # The component providing the target for taken branches (Count)
system.cpu.branchPred.targetProvider_0::RAS      4355271      4.42%     98.15% # The component providing the target for taken branches (Count)
system.cpu.branchPred.targetProvider_0::Indirect      1823484      1.85%    100.00% # The component providing the target for taken branches (Count)
system.cpu.branchPred.targetProvider_0::total     98501654                       # The component providing the target for taken branches (Count)
system.cpu.branchPred.targetWrong_0::NoBranch      1319726     56.53%     56.53% # Number of branches where the target was incorrect or not available at prediction time. (Count)
system.cpu.branchPred.targetWrong_0::Return      1014601     43.46%     99.99% # Number of branches where the target was incorrect or not available at prediction time. (Count)
system.cpu.branchPred.targetWrong_0::CallDirect           15      0.00%     99.99% # Number of branches where the target was incorrect or not available at prediction time. (Count)
system.cpu.branchPred.targetWrong_0::CallIndirect          140      0.01%    100.00% # Number of branches where the target was incorrect or not available at prediction time. (Count)
system.cpu.branchPred.targetWrong_0::DirectCond            0      0.00%    100.00% # Number of branches where the target was incorrect or not available at prediction time. (Count)
system.cpu.branchPred.targetWrong_0::DirectUncond            0      0.00%    100.00% # Number of branches where the target was incorrect or not available at prediction time. (Count)
system.cpu.branchPred.targetWrong_0::IndirectCond            0      0.00%    100.00% # Number of branches where the target was incorrect or not available at prediction time. (Count)
system.cpu.branchPred.targetWrong_0::IndirectUncond            0      0.00%    100.00% # Number of branches where the target was incorrect or not available at prediction time. (Count)
system.cpu.branchPred.targetWrong_0::total      2334482                       # Number of branches where the target was incorrect or not available at prediction time. (Count)
system.cpu.branchPred.condPredicted          77745082                       # Number of conditional branches predicted (Count)
system.cpu.branchPred.condPredictedTaken     48159112                       # Number of conditional branches predicted as taken (Count)
system.cpu.branchPred.condIncorrect           2336752                       # Number of conditional branches incorrect (Count)
system.cpu.branchPred.predTakenBTBMiss         606762                       # Number of branches predicted taken but missed in BTB (Count)
system.cpu.branchPred.NotTakenMispredicted      1321475                       # Number branches predicted 'not taken' but turned out to be taken (Count)
system.cpu.branchPred.TakenMispredicted       1015277                       # Number branches predicted taken but are actually not taken (Count)
system.cpu.branchPred.BTBLookups             98501654                       # Number of BTB lookups (Count)
system.cpu.branchPred.BTBUpdates              1319538                       # Number of BTB updates (Count)
system.cpu.branchPred.BTBHits                82490259                       # Number of BTB hits (Count)
system.cpu.branchPred.BTBHitRatio            0.837450                       # BTB Hit Ratio (Ratio)
system.cpu.branchPred.BTBMispredicted          607637                       # Number BTB mispredictions. No target found or target wrong (Count)
system.cpu.branchPred.indirectLookups         3848408                       # Number of indirect predictor lookups. (Count)
system.cpu.branchPred.indirectHits            1823484                       # Number of indirect target hits. (Count)
system.cpu.branchPred.indirectMisses          2024924                       # Number of indirect misses. (Count)
system.cpu.branchPred.indirectMispredicted            0                       # Number of mispredicted indirect branches. (Count)
system.cpu.branchPred.btb.lookups::NoBranch         2958      0.00%      0.00% # Number of BTB lookups (Count)
system.cpu.branchPred.btb.lookups::Return      4355273      4.42%      4.42% # Number of BTB lookups (Count)
system.cpu.branchPred.btb.lookups::CallDirect      4361368      4.43%      8.85% # Number of BTB lookups (Count)
system.cpu.branchPred.btb.lookups::CallIndirect         1368      0.00%      8.85% # Number of BTB lookups (Count)
system.cpu.branchPred.btb.lookups::DirectCond     77742124     78.92%     87.78% # Number of BTB lookups (Count)
system.cpu.branchPred.btb.lookups::DirectUncond      8191523      8.32%     96.09% # Number of BTB lookups (Count)
system.cpu.branchPred.btb.lookups::IndirectCond            0      0.00%     96.09% # Number of BTB lookups (Count)
system.cpu.branchPred.btb.lookups::IndirectUncond      3847040      3.91%    100.00% # Number of BTB lookups (Count)
system.cpu.branchPred.btb.lookups::total     98501654                       # Number of BTB lookups (Count)
system.cpu.branchPred.btb.misses::NoBranch          533      0.00%      0.00% # Number of BTB misses (Count)
system.cpu.branchPred.btb.misses::Return      4355273     27.20%     27.20% # Number of BTB misses (Count)
system.cpu.branchPred.btb.misses::CallDirect       303973      1.90%     29.10% # Number of BTB misses (Count)
system.cpu.branchPred.btb.misses::CallIndirect         1368      0.01%     29.11% # Number of BTB misses (Count)
system.cpu.branchPred.btb.misses::DirectCond      7401336     46.23%     75.34% # Number of BTB misses (Count)
system.cpu.branchPred.btb.misses::DirectUncond       101872      0.64%     75.97% # Number of BTB misses (Count)
system.cpu.branchPred.btb.misses::IndirectCond            0      0.00%     75.97% # Number of BTB misses (Count)
system.cpu.branchPred.btb.misses::IndirectUncond      3847040     24.03%    100.00% # Number of BTB misses (Count)
system.cpu.branchPred.btb.misses::total      16011395                       # Number of BTB misses (Count)
system.cpu.branchPred.btb.updates::NoBranch            0      0.00%      0.00% # Number of BTB updates (Count)
system.cpu.branchPred.btb.updates::Return            0      0.00%      0.00% # Number of BTB updates (Count)
system.cpu.branchPred.btb.updates::CallDirect       303300     22.99%     22.99% # Number of BTB updates (Count)
system.cpu.branchPred.btb.updates::CallIndirect            0      0.00%     22.99% # Number of BTB updates (Count)
system.cpu.branchPred.btb.updates::DirectCond       914782     69.33%     92.31% # Number of BTB updates (Count)
system.cpu.branchPred.btb.updates::DirectUncond       101456      7.69%    100.00% # Number of BTB updates (Count)
system.cpu.branchPred.btb.updates::IndirectCond            0      0.00%    100.00% # Number of BTB updates (Count)
system.cpu.branchPred.btb.updates::IndirectUncond            0      0.00%    100.00% # Number of BTB updates (Count)
system.cpu.branchPred.btb.updates::total      1319538                       # Number of BTB updates (Count)
system.cpu.branchPred.btb.mispredict::NoBranch            0      0.00%      0.00% # Number of BTB mispredictions. No target found or target wrong. (Count)
system.cpu.branchPred.btb.mispredict::Return            0      0.00%      0.00% # Number of BTB mispredictions. No target found or target wrong. (Count)
system.cpu.branchPred.btb.mispredict::CallDirect       303300     22.99%     22.99% # Number of BTB mispredictions. No target found or target wrong. (Count)
system.cpu.branchPred.btb.mispredict::CallIndirect            0      0.00%     22.99% # Number of BTB mispredictions. No target found or target wrong. (Count)
system.cpu.branchPred.btb.mispredict::DirectCond       914782     69.33%     92.31% # Number of BTB mispredictions. No target found or target wrong. (Count)
system.cpu.branchPred.btb.mispredict::DirectUncond       101456      7.69%    100.00% # Number of BTB mispredictions. No target found or target wrong. (Count)
system.cpu.branchPred.btb.mispredict::IndirectCond            0      0.00%    100.00% # Number of BTB mispredictions. No target found or target wrong. (Count)
system.cpu.branchPred.btb.mispredict::IndirectUncond            0      0.00%    100.00% # Number of BTB mispredictions. No target found or target wrong. (Count)
system.cpu.branchPred.btb.mispredict::total      1319538                       # Number of BTB mispredictions. No target found or target wrong. (Count)
system.cpu.branchPred.btb.power_state.pwrStateResidencyTicks::UNDEFINED 2019698279614                       # Cumulative time (in ticks) in various power states (Tick)
system.cpu.branchPred.indirectBranchPred.lookups      3848408                       # Number of lookups (Count)
system.cpu.branchPred.indirectBranchPred.hits      1823484                       # Number of hits of a tag (Count)
system.cpu.branchPred.indirectBranchPred.misses      2024924                       # Number of misses (Count)
system.cpu.branchPred.indirectBranchPred.targetRecords         1414                       # Number of targets that where recorded/installed in the cache (Count)
system.cpu.branchPred.indirectBranchPred.indirectRecords      3849822                       # Number of indirect branches/calls recorded in the indirect hist (Count)
system.cpu.branchPred.indirectBranchPred.speculativeOverflows            1                       # Number of times more than the allowed capacity for speculative branches/calls where in flight and destroy the path history (Count)
system.cpu.branchPred.ras.pushes              5377365                       # Number of times a PC was pushed onto the RAS (Count)
system.cpu.branchPred.ras.pops                5377358                       # Number of times a PC was poped from the RAS (Count)
system.cpu.branchPred.ras.squashes            2036714                       # Number of times the stack operation was squashed due to wrong speculation. (Count)
system.cpu.branchPred.ras.used                3340643                       # Number of times the RAS is the provider (Count)
system.cpu.branchPred.ras.correct             3340638                       # Number of times the RAS is the provider and the prediction is correct (Count)
system.cpu.branchPred.ras.incorrect                 5                       # Number of times the RAS is the provider and the prediction is wrong (Count)
system.cpu.commit.commitSquashedInsts       137259078                       # The number of squashed insts skipped by commit (Count)
system.cpu.commit.commitNonSpecStalls            2903                       # The number of times commit has been forced to stall to communicate backwards (Count)
system.cpu.commit.branchMispredicts           1931998                       # The number of times a branch was mispredicted (Count)
system.cpu.commit.numCommittedDist::samples    132978295                       # Number of insts commited each cycle (Count)
system.cpu.commit.numCommittedDist::mean     4.298185                       # Number of insts commited each cycle (Count)
system.cpu.commit.numCommittedDist::stdev     2.909593                       # Number of insts commited each cycle (Count)
system.cpu.commit.numCommittedDist::underflows            0      0.00%      0.00% # Number of insts commited each cycle (Count)
system.cpu.commit.numCommittedDist::0        18250146     13.72%     13.72% # Number of insts commited each cycle (Count)
system.cpu.commit.numCommittedDist::1         6085665      4.58%     18.30% # Number of insts commited each cycle (Count)
system.cpu.commit.numCommittedDist::2         7543285      5.67%     23.97% # Number of insts commited each cycle (Count)
system.cpu.commit.numCommittedDist::3        42893484     32.26%     56.23% # Number of insts commited each cycle (Count)
system.cpu.commit.numCommittedDist::4         5695335      4.28%     60.51% # Number of insts commited each cycle (Count)
system.cpu.commit.numCommittedDist::5         3248088      2.44%     62.95% # Number of insts commited each cycle (Count)
system.cpu.commit.numCommittedDist::6         3075016      2.31%     65.27% # Number of insts commited each cycle (Count)
system.cpu.commit.numCommittedDist::7         5257517      3.95%     69.22% # Number of insts commited each cycle (Count)
system.cpu.commit.numCommittedDist::8        40929759     30.78%    100.00% # Number of insts commited each cycle (Count)
system.cpu.commit.numCommittedDist::overflows            0      0.00%    100.00% # Number of insts commited each cycle (Count)
system.cpu.commit.numCommittedDist::min_value            0                       # Number of insts commited each cycle (Count)
system.cpu.commit.numCommittedDist::max_value            8                       # Number of insts commited each cycle (Count)
system.cpu.commit.numCommittedDist::total    132978295                       # Number of insts commited each cycle (Count)
system.cpu.commit.amos                              0                       # Number of atomic instructions committed (Count)
system.cpu.commit.membars                        1436                       # Number of memory barriers committed (Count)
system.cpu.commit.functionCalls               3340648                       # Number of function calls committed. (Count)
system.cpu.commit.committedInstType_0::No_OpClass     10301075      1.80%      1.80% # Class of committed instruction (Count)
system.cpu.commit.committedInstType_0::IntAlu    437847650     76.61%     78.41% # Class of committed instruction (Count)
system.cpu.commit.committedInstType_0::IntMult       302781      0.05%     78.46% # Class of committed instruction (Count)
system.cpu.commit.committedInstType_0::IntDiv        39630      0.01%     78.47% # Class of committed instruction (Count)
system.cpu.commit.committedInstType_0::FloatAdd       309669      0.05%     78.52% # Class of committed instruction (Count)
system.cpu.commit.committedInstType_0::FloatCmp            0      0.00%     78.52% # Class of committed instruction (Count)
system.cpu.commit.committedInstType_0::FloatCvt         1312      0.00%     78.52% # Class of committed instruction (Count)
system.cpu.commit.committedInstType_0::FloatMult            0      0.00%     78.52% # Class of committed instruction (Count)
system.cpu.commit.committedInstType_0::FloatMultAcc            0      0.00%     78.52% # Class of committed instruction (Count)
system.cpu.commit.committedInstType_0::FloatDiv            0      0.00%     78.52% # Class of committed instruction (Count)
system.cpu.commit.committedInstType_0::FloatMisc            0      0.00%     78.52% # Class of committed instruction (Count)
system.cpu.commit.committedInstType_0::FloatSqrt            0      0.00%     78.52% # Class of committed instruction (Count)
system.cpu.commit.committedInstType_0::SimdAdd         6606      0.00%     78.52% # Class of committed instruction (Count)
system.cpu.commit.committedInstType_0::SimdAddAcc            0      0.00%     78.52% # Class of committed instruction (Count)
system.cpu.commit.committedInstType_0::SimdAlu      1021377      0.18%     78.70% # Class of committed instruction (Count)
system.cpu.commit.committedInstType_0::SimdCmp            6      0.00%     78.70% # Class of committed instruction (Count)
system.cpu.commit.committedInstType_0::SimdCvt       215338      0.04%     78.74% # Class of committed instruction (Count)
system.cpu.commit.committedInstType_0::SimdMisc       315987      0.06%     78.79% # Class of committed instruction (Count)
system.cpu.commit.committedInstType_0::SimdMult            0      0.00%     78.79% # Class of committed instruction (Count)
system.cpu.commit.committedInstType_0::SimdMultAcc            0      0.00%     78.79% # Class of committed instruction (Count)
system.cpu.commit.committedInstType_0::SimdMatMultAcc            0      0.00%     78.79% # Class of committed instruction (Count)
system.cpu.commit.committedInstType_0::SimdShift         1828      0.00%     78.79% # Class of committed instruction (Count)
system.cpu.commit.committedInstType_0::SimdShiftAcc            0      0.00%     78.79% # Class of committed instruction (Count)
system.cpu.commit.committedInstType_0::SimdDiv            0      0.00%     78.79% # Class of committed instruction (Count)
system.cpu.commit.committedInstType_0::SimdSqrt            0      0.00%     78.79% # Class of committed instruction (Count)
system.cpu.commit.committedInstType_0::SimdFloatAdd       100825      0.02%     78.81% # Class of committed instruction (Count)
system.cpu.commit.committedInstType_0::SimdFloatAlu            0      0.00%     78.81% # Class of committed instruction (Count)
system.cpu.commit.committedInstType_0::SimdFloatCmp            0      0.00%     78.81% # Class of committed instruction (Count)
system.cpu.commit.committedInstType_0::SimdFloatCvt       201650      0.04%     78.85% # Class of committed instruction (Count)
system.cpu.commit.committedInstType_0::SimdFloatDiv       100825      0.02%     78.87% # Class of committed instruction (Count)
system.cpu.commit.committedInstType_0::SimdFloatMisc            0      0.00%     78.87% # Class of committed instruction (Count)
system.cpu.commit.committedInstType_0::SimdFloatMult            0      0.00%     78.87% # Class of committed instruction (Count)
system.cpu.commit.committedInstType_0::SimdFloatMultAcc            0      0.00%     78.87% # Class of committed instruction (Count)
system.cpu.commit.committedInstType_0::SimdFloatMatMultAcc            0      0.00%     78.87% # Class of committed instruction (Count)
system.cpu.commit.committedInstType_0::SimdFloatSqrt            0      0.00%     78.87% # Class of committed instruction (Count)
system.cpu.commit.committedInstType_0::SimdReduceAdd            0      0.00%     78.87% # Class of committed instruction (Count)
system.cpu.commit.committedInstType_0::SimdReduceAlu            0      0.00%     78.87% # Class of committed instruction (Count)
system.cpu.commit.committedInstType_0::SimdReduceCmp            0      0.00%     78.87% # Class of committed instruction (Count)
system.cpu.commit.committedInstType_0::SimdFloatReduceAdd            0      0.00%     78.87% # Class of committed instruction (Count)
system.cpu.commit.committedInstType_0::SimdFloatReduceCmp            0      0.00%     78.87% # Class of committed instruction (Count)
system.cpu.commit.committedInstType_0::SimdAes            0      0.00%     78.87% # Class of committed instruction (Count)
system.cpu.commit.committedInstType_0::SimdAesMix            0      0.00%     78.87% # Class of committed instruction (Count)
system.cpu.commit.committedInstType_0::SimdSha1Hash            0      0.00%     78.87% # Class of committed instruction (Count)
system.cpu.commit.committedInstType_0::SimdSha1Hash2            0      0.00%     78.87% # Class of committed instruction (Count)
system.cpu.commit.committedInstType_0::SimdSha256Hash            0      0.00%     78.87% # Class of committed instruction (Count)
system.cpu.commit.committedInstType_0::SimdSha256Hash2            0      0.00%     78.87% # Class of committed instruction (Count)
system.cpu.commit.committedInstType_0::SimdShaSigma2            0      0.00%     78.87% # Class of committed instruction (Count)
system.cpu.commit.committedInstType_0::SimdShaSigma3            0      0.00%     78.87% # Class of committed instruction (Count)
system.cpu.commit.committedInstType_0::SimdPredAlu            0      0.00%     78.87% # Class of committed instruction (Count)
system.cpu.commit.committedInstType_0::Matrix            0      0.00%     78.87% # Class of committed instruction (Count)
system.cpu.commit.committedInstType_0::MatrixMov            0      0.00%     78.87% # Class of committed instruction (Count)
system.cpu.commit.committedInstType_0::MatrixOP            0      0.00%     78.87% # Class of committed instruction (Count)
system.cpu.commit.committedInstType_0::MemRead     74450989     13.03%     91.89% # Class of committed instruction (Count)
system.cpu.commit.committedInstType_0::MemWrite     45609635      7.98%     99.87% # Class of committed instruction (Count)
system.cpu.commit.committedInstType_0::FloatMemRead       622473      0.11%     99.98% # Class of committed instruction (Count)
system.cpu.commit.committedInstType_0::FloatMemWrite       115598      0.02%    100.00% # Class of committed instruction (Count)
system.cpu.commit.committedInstType_0::IprAccess            0      0.00%    100.00% # Class of committed instruction (Count)
system.cpu.commit.committedInstType_0::InstPrefetch            0      0.00%    100.00% # Class of committed instruction (Count)
system.cpu.commit.committedInstType_0::SimdUnitStrideLoad            0      0.00%    100.00% # Class of committed instruction (Count)
system.cpu.commit.committedInstType_0::SimdUnitStrideStore            0      0.00%    100.00% # Class of committed instruction (Count)
system.cpu.commit.committedInstType_0::SimdUnitStrideMaskLoad            0      0.00%    100.00% # Class of committed instruction (Count)
system.cpu.commit.committedInstType_0::SimdUnitStrideMaskStore            0      0.00%    100.00% # Class of committed instruction (Count)
system.cpu.commit.committedInstType_0::SimdStridedLoad            0      0.00%    100.00% # Class of committed instruction (Count)
system.cpu.commit.committedInstType_0::SimdStridedStore            0      0.00%    100.00% # Class of committed instruction (Count)
system.cpu.commit.committedInstType_0::SimdIndexedLoad            0      0.00%    100.00% # Class of committed instruction (Count)
system.cpu.commit.committedInstType_0::SimdIndexedStore            0      0.00%    100.00% # Class of committed instruction (Count)
system.cpu.commit.committedInstType_0::SimdWholeRegisterLoad            0      0.00%    100.00% # Class of committed instruction (Count)
system.cpu.commit.committedInstType_0::SimdWholeRegisterStore            0      0.00%    100.00% # Class of committed instruction (Count)
system.cpu.commit.committedInstType_0::SimdUnitStrideFaultOnlyFirstLoad            0      0.00%    100.00% # Class of committed instruction (Count)
system.cpu.commit.committedInstType_0::SimdUnitStrideSegmentedLoad            0      0.00%    100.00% # Class of committed instruction (Count)
system.cpu.commit.committedInstType_0::SimdUnitStrideSegmentedStore            0      0.00%    100.00% # Class of committed instruction (Count)
system.cpu.commit.committedInstType_0::SimdExt            0      0.00%    100.00% # Class of committed instruction (Count)
system.cpu.commit.committedInstType_0::SimdFloatExt            0      0.00%    100.00% # Class of committed instruction (Count)
system.cpu.commit.committedInstType_0::SimdConfig            0      0.00%    100.00% # Class of committed instruction (Count)
system.cpu.commit.committedInstType_0::total    571565254                       # Class of committed instruction (Count)
system.cpu.commit.commitEligibleSamples      40929759                       # number cycles where commit BW limit reached (Cycle)
system.cpu.commitStats0.numInsts            337344694                       # Number of instructions committed (thread level) (Count)
system.cpu.commitStats0.numOps              571565254                       # Number of ops (including micro ops) committed (thread level) (Count)
system.cpu.commitStats0.numInstsNotNOP      337344694                       # Number of instructions committed excluding NOPs or prefetches (Count)
system.cpu.commitStats0.numOpsNotNOP        571565254                       # Number of Ops (including micro ops) Simulated (Count)
system.cpu.commitStats0.cpi                  0.449040                       # CPI: cycles per instruction (thread level) ((Cycle/Count))
system.cpu.commitStats0.ipc                  2.226975                       # IPC: instructions per cycle (thread level) ((Count/Cycle))
system.cpu.commitStats0.numMemRefs          120798695                       # Number of memory references committed (Count)
system.cpu.commitStats0.numFpInsts            3017395                       # Number of float instructions (Count)
system.cpu.commitStats0.numIntInsts         559086497                       # Number of integer instructions (Count)
system.cpu.commitStats0.numLoadInsts         75073462                       # Number of load instructions (Count)
system.cpu.commitStats0.numStoreInsts        45725233                       # Number of store instructions (Count)
system.cpu.commitStats0.numVecInsts                 0                       # Number of vector instructions (Count)
system.cpu.commitStats0.committedInstType::No_OpClass     10301075      1.80%      1.80% # Class of committed instruction. (Count)
system.cpu.commitStats0.committedInstType::IntAlu    437847650     76.61%     78.41% # Class of committed instruction. (Count)
system.cpu.commitStats0.committedInstType::IntMult       302781      0.05%     78.46% # Class of committed instruction. (Count)
system.cpu.commitStats0.committedInstType::IntDiv        39630      0.01%     78.47% # Class of committed instruction. (Count)
system.cpu.commitStats0.committedInstType::FloatAdd       309669      0.05%     78.52% # Class of committed instruction. (Count)
system.cpu.commitStats0.committedInstType::FloatCmp            0      0.00%     78.52% # Class of committed instruction. (Count)
system.cpu.commitStats0.committedInstType::FloatCvt         1312      0.00%     78.52% # Class of committed instruction. (Count)
system.cpu.commitStats0.committedInstType::FloatMult            0      0.00%     78.52% # Class of committed instruction. (Count)
system.cpu.commitStats0.committedInstType::FloatMultAcc            0      0.00%     78.52% # Class of committed instruction. (Count)
system.cpu.commitStats0.committedInstType::FloatDiv            0      0.00%     78.52% # Class of committed instruction. (Count)
system.cpu.commitStats0.committedInstType::FloatMisc            0      0.00%     78.52% # Class of committed instruction. (Count)
system.cpu.commitStats0.committedInstType::FloatSqrt            0      0.00%     78.52% # Class of committed instruction. (Count)
system.cpu.commitStats0.committedInstType::SimdAdd         6606      0.00%     78.52% # Class of committed instruction. (Count)
system.cpu.commitStats0.committedInstType::SimdAddAcc            0      0.00%     78.52% # Class of committed instruction. (Count)
system.cpu.commitStats0.committedInstType::SimdAlu      1021377      0.18%     78.70% # Class of committed instruction. (Count)
system.cpu.commitStats0.committedInstType::SimdCmp            6      0.00%     78.70% # Class of committed instruction. (Count)
system.cpu.commitStats0.committedInstType::SimdCvt       215338      0.04%     78.74% # Class of committed instruction. (Count)
system.cpu.commitStats0.committedInstType::SimdMisc       315987      0.06%     78.79% # Class of committed instruction. (Count)
system.cpu.commitStats0.committedInstType::SimdMult            0      0.00%     78.79% # Class of committed instruction. (Count)
system.cpu.commitStats0.committedInstType::SimdMultAcc            0      0.00%     78.79% # Class of committed instruction. (Count)
system.cpu.commitStats0.committedInstType::SimdMatMultAcc            0      0.00%     78.79% # Class of committed instruction. (Count)
system.cpu.commitStats0.committedInstType::SimdShift         1828      0.00%     78.79% # Class of committed instruction. (Count)
system.cpu.commitStats0.committedInstType::SimdShiftAcc            0      0.00%     78.79% # Class of committed instruction. (Count)
system.cpu.commitStats0.committedInstType::SimdDiv            0      0.00%     78.79% # Class of committed instruction. (Count)
system.cpu.commitStats0.committedInstType::SimdSqrt            0      0.00%     78.79% # Class of committed instruction. (Count)
system.cpu.commitStats0.committedInstType::SimdFloatAdd       100825      0.02%     78.81% # Class of committed instruction. (Count)
system.cpu.commitStats0.committedInstType::SimdFloatAlu            0      0.00%     78.81% # Class of committed instruction. (Count)
system.cpu.commitStats0.committedInstType::SimdFloatCmp            0      0.00%     78.81% # Class of committed instruction. (Count)
system.cpu.commitStats0.committedInstType::SimdFloatCvt       201650      0.04%     78.85% # Class of committed instruction. (Count)
system.cpu.commitStats0.committedInstType::SimdFloatDiv       100825      0.02%     78.87% # Class of committed instruction. (Count)
system.cpu.commitStats0.committedInstType::SimdFloatMisc            0      0.00%     78.87% # Class of committed instruction. (Count)
system.cpu.commitStats0.committedInstType::SimdFloatMult            0      0.00%     78.87% # Class of committed instruction. (Count)
system.cpu.commitStats0.committedInstType::SimdFloatMultAcc            0      0.00%     78.87% # Class of committed instruction. (Count)
system.cpu.commitStats0.committedInstType::SimdFloatMatMultAcc            0      0.00%     78.87% # Class of committed instruction. (Count)
system.cpu.commitStats0.committedInstType::SimdFloatSqrt            0      0.00%     78.87% # Class of committed instruction. (Count)
system.cpu.commitStats0.committedInstType::SimdReduceAdd            0      0.00%     78.87% # Class of committed instruction. (Count)
system.cpu.commitStats0.committedInstType::SimdReduceAlu            0      0.00%     78.87% # Class of committed instruction. (Count)
system.cpu.commitStats0.committedInstType::SimdReduceCmp            0      0.00%     78.87% # Class of committed instruction. (Count)
system.cpu.commitStats0.committedInstType::SimdFloatReduceAdd            0      0.00%     78.87% # Class of committed instruction. (Count)
system.cpu.commitStats0.committedInstType::SimdFloatReduceCmp            0      0.00%     78.87% # Class of committed instruction. (Count)
system.cpu.commitStats0.committedInstType::SimdAes            0      0.00%     78.87% # Class of committed instruction. (Count)
system.cpu.commitStats0.committedInstType::SimdAesMix            0      0.00%     78.87% # Class of committed instruction. (Count)
system.cpu.commitStats0.committedInstType::SimdSha1Hash            0      0.00%     78.87% # Class of committed instruction. (Count)
system.cpu.commitStats0.committedInstType::SimdSha1Hash2            0      0.00%     78.87% # Class of committed instruction. (Count)
system.cpu.commitStats0.committedInstType::SimdSha256Hash            0      0.00%     78.87% # Class of committed instruction. (Count)
system.cpu.commitStats0.committedInstType::SimdSha256Hash2            0      0.00%     78.87% # Class of committed instruction. (Count)
system.cpu.commitStats0.committedInstType::SimdShaSigma2            0      0.00%     78.87% # Class of committed instruction. (Count)
system.cpu.commitStats0.committedInstType::SimdShaSigma3            0      0.00%     78.87% # Class of committed instruction. (Count)
system.cpu.commitStats0.committedInstType::SimdPredAlu            0      0.00%     78.87% # Class of committed instruction. (Count)
system.cpu.commitStats0.committedInstType::Matrix            0      0.00%     78.87% # Class of committed instruction. (Count)
system.cpu.commitStats0.committedInstType::MatrixMov            0      0.00%     78.87% # Class of committed instruction. (Count)
system.cpu.commitStats0.committedInstType::MatrixOP            0      0.00%     78.87% # Class of committed instruction. (Count)
system.cpu.commitStats0.committedInstType::MemRead     74450989     13.03%     91.89% # Class of committed instruction. (Count)
system.cpu.commitStats0.committedInstType::MemWrite     45609635      7.98%     99.87% # Class of committed instruction. (Count)
system.cpu.commitStats0.committedInstType::FloatMemRead       622473      0.11%     99.98% # Class of committed instruction. (Count)
system.cpu.commitStats0.committedInstType::FloatMemWrite       115598      0.02%    100.00% # Class of committed instruction. (Count)
system.cpu.commitStats0.committedInstType::IprAccess            0      0.00%    100.00% # Class of committed instruction. (Count)
system.cpu.commitStats0.committedInstType::InstPrefetch            0      0.00%    100.00% # Class of committed instruction. (Count)
system.cpu.commitStats0.committedInstType::SimdUnitStrideLoad            0      0.00%    100.00% # Class of committed instruction. (Count)
system.cpu.commitStats0.committedInstType::SimdUnitStrideStore            0      0.00%    100.00% # Class of committed instruction. (Count)
system.cpu.commitStats0.committedInstType::SimdUnitStrideMaskLoad            0      0.00%    100.00% # Class of committed instruction. (Count)
system.cpu.commitStats0.committedInstType::SimdUnitStrideMaskStore            0      0.00%    100.00% # Class of committed instruction. (Count)
system.cpu.commitStats0.committedInstType::SimdStridedLoad            0      0.00%    100.00% # Class of committed instruction. (Count)
system.cpu.commitStats0.committedInstType::SimdStridedStore            0      0.00%    100.00% # Class of committed instruction. (Count)
system.cpu.commitStats0.committedInstType::SimdIndexedLoad            0      0.00%    100.00% # Class of committed instruction. (Count)
system.cpu.commitStats0.committedInstType::SimdIndexedStore            0      0.00%    100.00% # Class of committed instruction. (Count)
system.cpu.commitStats0.committedInstType::SimdWholeRegisterLoad            0      0.00%    100.00% # Class of committed instruction. (Count)
system.cpu.commitStats0.committedInstType::SimdWholeRegisterStore            0      0.00%    100.00% # Class of committed instruction. (Count)
system.cpu.commitStats0.committedInstType::SimdUnitStrideFaultOnlyFirstLoad            0      0.00%    100.00% # Class of committed instruction. (Count)
system.cpu.commitStats0.committedInstType::SimdUnitStrideSegmentedLoad            0      0.00%    100.00% # Class of committed instruction. (Count)
system.cpu.commitStats0.committedInstType::SimdUnitStrideSegmentedStore            0      0.00%    100.00% # Class of committed instruction. (Count)
system.cpu.commitStats0.committedInstType::SimdExt            0      0.00%    100.00% # Class of committed instruction. (Count)
system.cpu.commitStats0.committedInstType::SimdFloatExt            0      0.00%    100.00% # Class of committed instruction. (Count)
system.cpu.commitStats0.committedInstType::SimdConfig            0      0.00%    100.00% # Class of committed instruction. (Count)
system.cpu.commitStats0.committedInstType::total    571565254                       # Class of committed instruction. (Count)
system.cpu.commitStats0.committedControl::IsControl     72395522                       # Class of control type instructions committed (Count)
system.cpu.commitStats0.committedControl::IsDirectControl     67334536                       # Class of control type instructions committed (Count)
system.cpu.commitStats0.committedControl::IsIndirectControl      5060673                       # Class of control type instructions committed (Count)
system.cpu.commitStats0.committedControl::IsCondControl     58534668                       # Class of control type instructions committed (Count)
system.cpu.commitStats0.committedControl::IsUncondControl     13860541                       # Class of control type instructions committed (Count)
system.cpu.commitStats0.committedControl::IsCall      3340648                       # Class of control type instructions committed (Count)
system.cpu.commitStats0.committedControl::IsReturn      3340643                       # Class of control type instructions committed (Count)
system.cpu.decode.idleCycles                  8720692                       # Number of cycles decode is idle (Cycle)
system.cpu.decode.blockedCycles              22024621                       # Number of cycles decode is blocked (Cycle)
system.cpu.decode.runCycles                 109839678                       # Number of cycles decode is running (Cycle)
system.cpu.decode.unblockCycles               8752069                       # Number of cycles decode is unblocking (Cycle)
system.cpu.decode.squashCycles                2143088                       # Number of cycles decode is squashing (Cycle)
system.cpu.decode.branchResolved             58067874                       # Number of times decode resolved a branch (Count)
system.cpu.decode.branchMispred                405018                       # Number of times decode detected a branch misprediction (Count)
system.cpu.decode.decodedInsts              757444352                       # Number of instructions handled by decode (Count)
system.cpu.decode.squashedInsts               3235025                       # Number of squashed instructions handled by decode (Count)
system.cpu.executeStats0.numInsts           671630945                       # Number of executed instructions (Count)
system.cpu.executeStats0.numNop                     0                       # Number of nop insts executed (Count)
system.cpu.executeStats0.numBranches         80100164                       # Number of branches executed (Count)
system.cpu.executeStats0.numLoadInsts        84446013                       # Number of load instructions executed (Count)
system.cpu.executeStats0.numStoreInsts       50009289                       # Number of stores executed (Count)
system.cpu.executeStats0.instRate            4.433759                       # Inst execution rate ((Count/Cycle))
system.cpu.executeStats0.numCCRegReads      333501935                       # Number of times the CC registers were read (Count)
system.cpu.executeStats0.numCCRegWrites     254134922                       # Number of times the CC registers were written (Count)
system.cpu.executeStats0.numFpRegReads        4690489                       # Number of times the floating registers were read (Count)
system.cpu.executeStats0.numFpRegWrites       3415004                       # Number of times the floating registers were written (Count)
system.cpu.executeStats0.numIntRegReads     715864176                       # Number of times the integer registers were read (Count)
system.cpu.executeStats0.numIntRegWrites    461563620                       # Number of times the integer registers were written (Count)
system.cpu.executeStats0.numMemRefs         134455302                       # Number of memory refs (Count)
system.cpu.executeStats0.numMiscRegReads    301833321                       # Number of times the Misc registers were read (Count)
system.cpu.executeStats0.numMiscRegWrites          738                       # Number of times the Misc registers were written (Count)
system.cpu.executeStats0.numVecAluAccesses            0                       # Number of vector alu accesses (Count)
system.cpu.executeStats0.numDiscardedOps            0                       # Number of ops (including micro ops) which were discarded before commit (Count)
system.cpu.fetch.predictedBranches           66179729                       # Number of branches that fetch has predicted taken (Count)
system.cpu.fetch.cycles                     147368472                       # Number of cycles fetch has run and was not squashing or blocked (Cycle)
system.cpu.fetch.squashCycles                 5096014                       # Number of cycles fetch has spent squashing (Cycle)
system.cpu.fetch.miscStallCycles                  205                       # Number of cycles fetch has spent waiting on interrupts, or bad addresses, or out of MSHRs (Cycle)
system.cpu.fetch.pendingTrapStallCycles          1883                       # Number of stall cycles due to pending traps (Cycle)
system.cpu.fetch.cacheLines                  74396371                       # Number of cache lines fetched (Count)
[...]
system.mem_ctrl.dram.bwRead::total          141918236                       # Total read bandwidth from this memory ((Byte/Second))
system.mem_ctrl.dram.bwInstRead::cpu.inst     79941829                       # Instruction read bandwidth from this memory ((Byte/Second))
system.mem_ctrl.dram.bwInstRead::total       79941829                       # Instruction read bandwidth from this memory ((Byte/Second))
system.mem_ctrl.dram.bwWrite::writebacks     47707220                       # Write bandwidth from this memory ((Byte/Second))
system.mem_ctrl.dram.bwWrite::total          47707220                       # Write bandwidth from this memory ((Byte/Second))
system.mem_ctrl.dram.bwTotal::writebacks     47707220                       # Total bandwidth to/from this memory ((Byte/Second))
system.mem_ctrl.dram.bwTotal::cpu.inst       79941829                       # Total bandwidth to/from this memory ((Byte/Second))
system.mem_ctrl.dram.bwTotal::cpu.data       61976407                       # Total bandwidth to/from this memory ((Byte/Second))
system.mem_ctrl.dram.bwTotal::total         189625456                       # Total bandwidth to/from this memory ((Byte/Second))
system.mem_ctrl.dram.readBursts                  1647                       # Number of DRAM read bursts (Count)
system.mem_ctrl.dram.writeBursts                  555                       # Number of DRAM write bursts (Count)
system.mem_ctrl.dram.perBankRdBursts::0            63                       # Per bank write bursts (Count)
system.mem_ctrl.dram.perBankRdBursts::1           120                       # Per bank write bursts (Count)
system.mem_ctrl.dram.perBankRdBursts::2            69                       # Per bank write bursts (Count)
system.mem_ctrl.dram.perBankRdBursts::3            79                       # Per bank write bursts (Count)
system.mem_ctrl.dram.perBankRdBursts::4            66                       # Per bank write bursts (Count)
system.mem_ctrl.dram.perBankRdBursts::5           200                       # Per bank write bursts (Count)
system.mem_ctrl.dram.perBankRdBursts::6           130                       # Per bank write bursts (Count)
system.mem_ctrl.dram.perBankRdBursts::7            50                       # Per bank write bursts (Count)
system.mem_ctrl.dram.perBankRdBursts::8           145                       # Per bank write bursts (Count)
system.mem_ctrl.dram.perBankRdBursts::9            94                       # Per bank write bursts (Count)
system.mem_ctrl.dram.perBankRdBursts::10          122                       # Per bank write bursts (Count)
system.mem_ctrl.dram.perBankRdBursts::11          136                       # Per bank write bursts (Count)
system.mem_ctrl.dram.perBankRdBursts::12           55                       # Per bank write bursts (Count)
system.mem_ctrl.dram.perBankRdBursts::13          123                       # Per bank write bursts (Count)
system.mem_ctrl.dram.perBankRdBursts::14          109                       # Per bank write bursts (Count)
system.mem_ctrl.dram.perBankRdBursts::15           86                       # Per bank write bursts (Count)
system.mem_ctrl.dram.perBankWrBursts::0            15                       # Per bank write bursts (Count)
system.mem_ctrl.dram.perBankWrBursts::1             4                       # Per bank write bursts (Count)
system.mem_ctrl.dram.perBankWrBursts::2             5                       # Per bank write bursts (Count)
system.mem_ctrl.dram.perBankWrBursts::3             0                       # Per bank write bursts (Count)
system.mem_ctrl.dram.perBankWrBursts::4             0                       # Per bank write bursts (Count)
system.mem_ctrl.dram.perBankWrBursts::5            16                       # Per bank write bursts (Count)
system.mem_ctrl.dram.perBankWrBursts::6            13                       # Per bank write bursts (Count)
system.mem_ctrl.dram.perBankWrBursts::7            45                       # Per bank write bursts (Count)
system.mem_ctrl.dram.perBankWrBursts::8            43                       # Per bank write bursts (Count)
system.mem_ctrl.dram.perBankWrBursts::9            71                       # Per bank write bursts (Count)
system.mem_ctrl.dram.perBankWrBursts::10           69                       # Per bank write bursts (Count)
system.mem_ctrl.dram.perBankWrBursts::11           55                       # Per bank write bursts (Count)
system.mem_ctrl.dram.perBankWrBursts::12           60                       # Per bank write bursts (Count)
system.mem_ctrl.dram.perBankWrBursts::13           85                       # Per bank write bursts (Count)
system.mem_ctrl.dram.perBankWrBursts::14           60                       # Per bank write bursts (Count)
system.mem_ctrl.dram.perBankWrBursts::15           14                       # Per bank write bursts (Count)
system.mem_ctrl.dram.totQLat                 24056638                       # Total ticks spent queuing (Tick)
system.mem_ctrl.dram.totBusLat                8235000                       # Total ticks spent in databus transfers (Tick)
system.mem_ctrl.dram.totMemAccLat            54937888                       # Total ticks spent from burst creation until serviced by the DRAM (Tick)
system.mem_ctrl.dram.avgQLat                 14606.34                       # Average queueing delay per DRAM burst ((Tick/Count))
system.mem_ctrl.dram.avgBusLat                5000.00                       # Average bus latency per DRAM burst ((Tick/Count))
system.mem_ctrl.dram.avgMemAccLat            33356.34                       # Average memory access latency per DRAM burst ((Tick/Count))
system.mem_ctrl.dram.readRowHits                  896                       # Number of row buffer hits during reads (Count)
system.mem_ctrl.dram.writeRowHits                 351                       # Number of row buffer hits during writes (Count)
system.mem_ctrl.dram.readRowHitRate             54.40                       # Row buffer hit rate for reads (Ratio)
system.mem_ctrl.dram.writeRowHitRate            63.24                       # Row buffer hit rate for writes (Ratio)
system.mem_ctrl.dram.bytesPerActivate::samples          950                       # Bytes accessed per row activation (Byte)
system.mem_ctrl.dram.bytesPerActivate::mean   147.334737                       # Bytes accessed per row activation (Byte)
system.mem_ctrl.dram.bytesPerActivate::gmean   112.831434                       # Bytes accessed per row activation (Byte)
system.mem_ctrl.dram.bytesPerActivate::stdev   136.837915                       # Bytes accessed per row activation (Byte)
system.mem_ctrl.dram.bytesPerActivate::0-127          474     49.89%     49.89% # Bytes accessed per row activation (Byte)
system.mem_ctrl.dram.bytesPerActivate::128-255          309     32.53%     82.42% # Bytes accessed per row activation (Byte)
system.mem_ctrl.dram.bytesPerActivate::256-383           98     10.32%     92.74% # Bytes accessed per row activation (Byte)
system.mem_ctrl.dram.bytesPerActivate::384-511           35      3.68%     96.42% # Bytes accessed per row activation (Byte)
system.mem_ctrl.dram.bytesPerActivate::512-639           16      1.68%     98.11% # Bytes accessed per row activation (Byte)
system.mem_ctrl.dram.bytesPerActivate::640-767           10      1.05%     99.16% # Bytes accessed per row activation (Byte)
system.mem_ctrl.dram.bytesPerActivate::768-895            3      0.32%     99.47% # Bytes accessed per row activation (Byte)
system.mem_ctrl.dram.bytesPerActivate::896-1023            1      0.11%     99.58% # Bytes accessed per row activation (Byte)
system.mem_ctrl.dram.bytesPerActivate::1024-1151            4      0.42%    100.00% # Bytes accessed per row activation (Byte)
system.mem_ctrl.dram.bytesPerActivate::total          950                       # Bytes accessed per row activation (Byte)
system.mem_ctrl.dram.dramBytesRead             105408                       # Total bytes read (Byte)
system.mem_ctrl.dram.dramBytesWritten           35520                       # Total bytes written (Byte)
system.mem_ctrl.dram.avgRdBW               141.574400                       # Average DRAM read bandwidth in MiBytes/s ((Byte/Second))
system.mem_ctrl.dram.avgWrBW                47.707220                       # Average DRAM write bandwidth in MiBytes/s ((Byte/Second))
system.mem_ctrl.dram.peakBW                  12800.00                       # Theoretical peak bandwidth in MiByte/s ((Byte/Second))
system.mem_ctrl.dram.busUtil                     1.48                       # Data bus utilization in percentage (Ratio)
system.mem_ctrl.dram.busUtilRead                 1.11                       # Data bus utilization in percentage for reads (Ratio)
system.mem_ctrl.dram.busUtilWrite                0.37                       # Data bus utilization in percentage for writes (Ratio)
system.mem_ctrl.dram.pageHitRate                56.63                       # Row buffer hit rate, read and write combined (Ratio)
system.mem_ctrl.dram.power_state.pwrStateResidencyTicks::UNDEFINED    744541386                       # Cumulative time (in ticks) in various power states (Tick)
system.mem_ctrl.dram.rank0.actEnergy          3127320                       # Energy for activate commands per rank (pJ) (Joule)
system.mem_ctrl.dram.rank0.preEnergy          1647030                       # Energy for precharge commands per rank (pJ) (Joule)
system.mem_ctrl.dram.rank0.readEnergy         5547780                       # Energy for read commands per rank (pJ) (Joule)
system.mem_ctrl.dram.rank0.writeEnergy         511560                       # Energy for write commands per rank (pJ) (Joule)
system.mem_ctrl.dram.rank0.refreshEnergy 58390800.000000                       # Energy for refresh commands per rank (pJ) (Joule)
system.mem_ctrl.dram.rank0.actBackEnergy    228933660                       # Energy for active background per rank (pJ) (Joule)
system.mem_ctrl.dram.rank0.preBackEnergy     93038880                       # Energy for precharge background per rank (pJ) (Joule)
system.mem_ctrl.dram.rank0.actPowerDownEnergy            0                       # Energy for active power-down per rank (pJ) (Joule)
system.mem_ctrl.dram.rank0.prePowerDownEnergy            0                       # Energy for precharge power-down per rank (pJ) (Joule)
system.mem_ctrl.dram.rank0.selfRefreshEnergy            0                       # Energy for self refresh per rank (pJ) (Joule)
system.mem_ctrl.dram.rank0.totalEnergy      391197030                       # Total energy per rank (pJ) (Joule)
system.mem_ctrl.dram.rank0.averagePower    525.420128                       # Core power per rank (mW) (Watt)
system.mem_ctrl.dram.rank0.totalIdleTime            0                       # Total Idle time Per DRAM Rank (Tick)
system.mem_ctrl.dram.rank0.pwrStateTime::IDLE    239745250                       # Time in different power states (Tick)
system.mem_ctrl.dram.rank0.pwrStateTime::REF     24919955                       # Time in different power states (Tick)
system.mem_ctrl.dram.rank0.pwrStateTime::SREF            0                       # Time in different power states (Tick)
system.mem_ctrl.dram.rank0.pwrStateTime::PRE_PDN            0                       # Time in different power states (Tick)
system.mem_ctrl.dram.rank0.pwrStateTime::ACT    479876181                       # Time in different power states (Tick)
system.mem_ctrl.dram.rank0.pwrStateTime::ACT_PDN            0                       # Time in different power states (Tick)
system.mem_ctrl.dram.rank1.actEnergy          3691380                       # Energy for activate commands per rank (pJ) (Joule)
system.mem_ctrl.dram.rank1.preEnergy          1958220                       # Energy for precharge commands per rank (pJ) (Joule)
system.mem_ctrl.dram.rank1.readEnergy         6211800                       # Energy for read commands per rank (pJ) (Joule)
system.mem_ctrl.dram.rank1.writeEnergy        2385540                       # Energy for write commands per rank (pJ) (Joule)
system.mem_ctrl.dram.rank1.refreshEnergy 58390800.000000                       # Energy for refresh commands per rank (pJ) (Joule)
system.mem_ctrl.dram.rank1.actBackEnergy    247444980                       # Energy for active background per rank (pJ) (Joule)
system.mem_ctrl.dram.rank1.preBackEnergy     77455680                       # Energy for precharge background per rank (pJ) (Joule)
system.mem_ctrl.dram.rank1.actPowerDownEnergy            0                       # Energy for active power-down per rank (pJ) (Joule)
system.mem_ctrl.dram.rank1.prePowerDownEnergy            0                       # Energy for precharge power-down per rank (pJ) (Joule)
system.mem_ctrl.dram.rank1.selfRefreshEnergy            0                       # Energy for self refresh per rank (pJ) (Joule)
system.mem_ctrl.dram.rank1.totalEnergy      397538400                       # Total energy per rank (pJ) (Joule)
system.mem_ctrl.dram.rank1.averagePower    533.937277                       # Core power per rank (mW) (Watt)
system.mem_ctrl.dram.rank1.totalIdleTime            0                       # Total Idle time Per DRAM Rank (Tick)
system.mem_ctrl.dram.rank1.pwrStateTime::IDLE    199124376                       # Time in different power states (Tick)
system.mem_ctrl.dram.rank1.pwrStateTime::REF     24906205                       # Time in different power states (Tick)
system.mem_ctrl.dram.rank1.pwrStateTime::SREF            0                       # Time in different power states (Tick)
system.mem_ctrl.dram.rank1.pwrStateTime::PRE_PDN            0                       # Time in different power states (Tick)
system.mem_ctrl.dram.rank1.pwrStateTime::ACT    520510805                       # Time in different power states (Tick)
system.mem_ctrl.dram.rank1.pwrStateTime::ACT_PDN            0                       # Time in different power states (Tick)
system.mem_ctrl.power_state.pwrStateResidencyTicks::UNDEFINED    744541386                       # Cumulative time (in ticks) in various power states (Tick)
system.membus.transDist::ReadResp                1596                       # Transaction distribution (Count)
system.membus.transDist::WritebackDirty           555                       # Transaction distribution (Count)
system.membus.transDist::CleanEvict              1092                       # Transaction distribution (Count)
system.membus.transDist::UpgradeReq                 1                       # Transaction distribution (Count)
system.membus.transDist::ReadExReq                 56                       # Transaction distribution (Count)
system.membus.transDist::ReadExResp                56                       # Transaction distribution (Count)
system.membus.transDist::ReadSharedReq           1596                       # Transaction distribution (Count)
system.membus.pktCount_system.cpu.l1d.mem_side_port::system.mem_ctrl.port         2164                       # Packet count per connected requestor and responder (Count)
system.membus.pktCount_system.cpu.l1d.mem_side_port::total         2164                       # Packet count per connected requestor and responder (Count)
system.membus.pktCount_system.cpu.l1i.mem_side_port::system.mem_ctrl.port         2787                       # Packet count per connected requestor and responder (Count)
system.membus.pktCount_system.cpu.l1i.mem_side_port::total         2787                       # Packet count per connected requestor and responder (Count)
system.membus.pktCount::total                    4951                       # Packet count per connected requestor and responder (Count)
system.membus.pktSize_system.cpu.l1d.mem_side_port::system.mem_ctrl.port        81664                       # Cumulative packet size per connected requestor and responder (Byte)
system.membus.pktSize_system.cpu.l1d.mem_side_port::total        81664                       # Cumulative packet size per connected requestor and responder (Byte)
system.membus.pktSize_system.cpu.l1i.mem_side_port::system.mem_ctrl.port        59520                       # Cumulative packet size per connected requestor and responder (Byte)
system.membus.pktSize_system.cpu.l1i.mem_side_port::total        59520                       # Cumulative packet size per connected requestor and responder (Byte)
system.membus.pktSize::total                   141184                       # Cumulative packet size per connected requestor and responder (Byte)
system.membus.snoops                                1                       # Total snoops (Count)
system.membus.snoopTraffic                         64                       # Total snoop traffic (Byte)
system.membus.snoopFanout::samples               1653                       # Request fanout histogram (Count)
system.membus.snoopFanout::mean              0.004840                       # Request fanout histogram (Count)
system.membus.snoopFanout::stdev             0.069420                       # Request fanout histogram (Count)
system.membus.snoopFanout::underflows               0      0.00%      0.00% # Request fanout histogram (Count)
system.membus.snoopFanout::0                     1645     99.52%     99.52% # Request fanout histogram (Count)
system.membus.snoopFanout::1                        8      0.48%    100.00% # Request fanout histogram (Count)
system.membus.snoopFanout::2                        0      0.00%    100.00% # Request fanout histogram (Count)
system.membus.snoopFanout::overflows                0      0.00%    100.00% # Request fanout histogram (Count)
system.membus.snoopFanout::min_value                0                       # Request fanout histogram (Count)
system.membus.snoopFanout::max_value                1                       # Request fanout histogram (Count)
system.membus.snoopFanout::total                 1653                       # Request fanout histogram (Count)
system.membus.power_state.pwrStateResidencyTicks::UNDEFINED    744541386                       # Cumulative time (in ticks) in various power states (Tick)
system.membus.reqLayer2.occupancy            73598160                       # Layer occupancy (ticks) (Tick)
system.membus.reqLayer2.utilization               0.1                       # Layer utilization (Ratio)
system.membus.respLayer2.occupancy           48820232                       # Layer occupancy (ticks) (Tick)
system.membus.respLayer2.utilization              0.1                       # Layer utilization (Ratio)
system.membus.respLayer3.occupancy           63436450                       # Layer occupancy (ticks) (Tick)
system.membus.respLayer3.utilization              0.1                       # Layer utilization (Ratio)
system.membus.snoop_filter.totRequests           3300                       # Total number of requests made to the snoop filter. (Count)
system.membus.snoop_filter.hitSingleRequests         1654                       # Number of requests hitting in the snoop filter with a single holder of the requested data. (Count)
system.membus.snoop_filter.hitMultiRequests            1                       # Number of requests hitting in the snoop filter with multiple (>1) holders of the requested data. (Count)
system.membus.snoop_filter.totSnoops                0                       # Total number of snoops made to the snoop filter. (Count)
system.membus.snoop_filter.hitSingleSnoops            0                       # Number of snoops hitting in the snoop filter with a single holder of the requested data. (Count)
system.membus.snoop_filter.hitMultiSnoops            0                       # Number of snoops hitting in the snoop filter with multiple (>1) holders of the requested data. (Count)
system.workload.inst.arm                            0                       # number of arm instructions executed (Count)
system.workload.inst.quiesce                        0                       # number of quiesce instructions executed (Count)

---------- End Simulation Statistics   ----------
