
---------- Begin Simulation Statistics ----------
simSeconds                                   1.089463                       # Number of seconds simulated (Second)
simTicks                                 1089462616087                       # Number of ticks simulated (Tick)
finalTick                                1089462616087                       # Number of ticks from beginning of simulation (restored from checkpoints and never reset) (Tick)
simFreq                                  1000000000000                       # The number of ticks per simulated second ((Tick/Second))
hostSeconds                                    223.98                       # Real time elapsed on the host (Second)
hostTickRate                               4864059390                       # The number of ticks simulated per host second (ticks/s) ((Tick/Second))
hostMemory                                    8620304                       # Number of bytes of host memory used (Byte)
simInsts                                     27334258                       # Number of instructions simulated (Count)
simOps                                       52665712                       # Number of ops (including micro ops) simulated (Count)
hostInstRate                                   122038                       # Simulator instruction rate (inst/s) ((Count/Second))
hostOpRate                                     235133                       # Simulator op (including micro ops) rate (op/s) ((Count/Second))
system.clk_domain.clock                         13333                       # Clock period in ticks (Tick)
system.clk_domain.voltage_domain.voltage            1                       # Voltage in Volts (Volt)
system.cpu.numCycles                         81711739                       # Number of cpu cycles simulated (Cycle)
system.cpu.cpi                               2.989353                       # CPI: cycles per instruction (core level) ((Cycle/Count))
system.cpu.ipc                               0.334521                       # IPC: instructions per cycle (core level) ((Count/Cycle))
system.cpu.numWorkItemsStarted                      0                       # Number of work items this cpu started (Count)
system.cpu.numWorkItemsCompleted                    0                       # Number of work items this cpu completed (Count)
system.cpu.branchPred.lookups_0::NoBranch            0                       # Number of BP lookups (Count)
system.cpu.branchPred.lookups_0::Return             0                       # Number of BP lookups (Count)
system.cpu.branchPred.lookups_0::CallDirect            0                       # Number of BP lookups (Count)
system.cpu.branchPred.lookups_0::CallIndirect            0                       # Number of BP lookups (Count)
system.cpu.branchPred.lookups_0::DirectCond            0                       # Number of BP lookups (Count)
system.cpu.branchPred.lookups_0::DirectUncond            0                       # Number of BP lookups (Count)
system.cpu.branchPred.lookups_0::IndirectCond            0                       # Number of BP lookups (Count)
system.cpu.branchPred.lookups_0::IndirectUncond            0                       # Number of BP lookups (Count)
system.cpu.branchPred.lookups_0::total              0                       # Number of BP lookups (Count)
system.cpu.branchPred.squashes_0::NoBranch            0                       # Number of branches that got squashed (completely removed) as an earlier branch was mispredicted. (Count)
system.cpu.branchPred.squashes_0::Return            0                       # Number of branches that got squashed (completely removed) as an earlier branch was mispredicted. (Count)
system.cpu.branchPred.squashes_0::CallDirect            0                       # Number of branches that got squashed (completely removed) as an earlier branch was mispredicted. (Count)
system.cpu.branchPred.squashes_0::CallIndirect            0                       # Number of branches that got squashed (completely removed) as an earlier branch was mispredicted. (Count)
system.cpu.branchPred.squashes_0::DirectCond            0                       # Number of branches that got squashed (completely removed) as an earlier branch was mispredicted. (Count)
system.cpu.branchPred.squashes_0::DirectUncond            0                       # Number of branches that got squashed (completely removed) as an earlier branch was mispredicted. (Count)
system.cpu.branchPred.squashes_0::IndirectCond            0                       # Number of branches that got squashed (completely removed) as an earlier branch was mispredicted. (Count)
system.cpu.branchPred.squashes_0::IndirectUncond            0                       # Number of branches that got squashed (completely removed) as an earlier branch was mispredicted. (Count)
system.cpu.branchPred.squashes_0::total             0                       # Number of branches that got squashed (completely removed) as an earlier branch was mispredicted. (Count)
system.cpu.branchPred.corrected_0::NoBranch            0                       # Number of branches that got corrected but not yet commited. Branches get corrected by decode or after execute. Also a branch misprediction can be detected out-of-order. Therefore, a corrected branch might not end up beeing committed in case an even earlier branch was mispredicted (Count)
system.cpu.branchPred.corrected_0::Return            0                       # Number of branches that got corrected but not yet commited. Branches get corrected by decode or after execute. Also a branch misprediction can be detected out-of-order. Therefore, a corrected branch might not end up beeing committed in case an even earlier branch was mispredicted (Count)
system.cpu.branchPred.corrected_0::CallDirect            0                       # Number of branches that got corrected but not yet commited. Branches get corrected by decode or after execute. Also a branch misprediction can be detected out-of-order. Therefore, a corrected branch might not end up beeing committed in case an even earlier branch was mispredicted (Count)
system.cpu.branchPred.corrected_0::CallIndirect            0                       # Number of branches that got corrected but not yet commited. Branches get corrected by decode or after execute. Also a branch misprediction can be detected out-of-order. Therefore, a corrected branch might not end up beeing committed in case an even earlier branch was mispredicted (Count)
system.cpu.branchPred.corrected_0::DirectCond            0                       # Number of branches that got corrected but not yet commited. Branches get corrected by decode or after execute. Also a branch misprediction can be detected out-of-order. Therefore, a corrected branch might not end up beeing committed in case an even earlier branch was mispredicted (Count)
system.cpu.branchPred.corrected_0::DirectUncond            0                       # Number of branches that got corrected but not yet commited. Branches get corrected by decode or after execute. Also a branch misprediction can be detected out-of-order. Therefore, a corrected branch might not end up beeing committed in case an even earlier branch was mispredicted (Count)
system.cpu.branchPred.corrected_0::IndirectCond            0                       # Number of branches that got corrected but not yet commited. Branches get corrected by decode or after execute. Also a branch misprediction can be detected out-of-order. Therefore, a corrected branch might not end up beeing committed in case an even earlier branch was mispredicted (Count)
system.cpu.branchPred.corrected_0::IndirectUncond            0                       # Number of branches that got corrected but not yet commited. Branches get corrected by decode or after execute. Also a branch misprediction can be detected out-of-order. Therefore, a corrected branch might not end up beeing committed in case an even earlier branch was mispredicted (Count)
system.cpu.branchPred.corrected_0::total            0                       # Number of branches that got corrected but not yet commited. Branches get corrected by decode or after execute. Also a branch misprediction can be detected out-of-order. Therefore, a corrected branch might not end up beeing committed in case an even earlier branch was mispredicted (Count)
system.cpu.branchPred.earlyResteers_0::NoBranch            0                       # Number of branches that got redirected after decode. (Count)
system.cpu.branchPred.earlyResteers_0::Return            0                       # Number of branches that got redirected after decode. (Count)
system.cpu.branchPred.earlyResteers_0::CallDirect            0                       # Number of branches that got redirected after decode. (Count)
system.cpu.branchPred.earlyResteers_0::CallIndirect            0                       # Number of branches that got redirected after decode. (Count)
system.cpu.branchPred.earlyResteers_0::DirectCond            0                       # Number of branches that got redirected after decode. (Count)
system.cpu.branchPred.earlyResteers_0::DirectUncond            0                       # Number of branches that got redirected after decode. (Count)
system.cpu.branchPred.earlyResteers_0::IndirectCond            0                       # Number of branches that got redirected after decode. (Count)
system.cpu.branchPred.earlyResteers_0::IndirectUncond            0                       # Number of branches that got redirected after decode. (Count)
system.cpu.branchPred.earlyResteers_0::total            0                       # Number of branches that got redirected after decode. (Count)
system.cpu.branchPred.committed_0::NoBranch            0                       # Number of branches finally committed  (Count)
system.cpu.branchPred.committed_0::Return            0                       # Number of branches finally committed  (Count)
system.cpu.branchPred.committed_0::CallDirect            0                       # Number of branches finally committed  (Count)
system.cpu.branchPred.committed_0::CallIndirect            0                       # Number of branches finally committed  (Count)
system.cpu.branchPred.committed_0::DirectCond            0                       # Number of branches finally committed  (Count)
system.cpu.branchPred.committed_0::DirectUncond            0                       # Number of branches finally committed  (Count)
system.cpu.branchPred.committed_0::IndirectCond            0                       # Number of branches finally committed  (Count)
system.cpu.branchPred.committed_0::IndirectUncond            0                       # Number of branches finally committed  (Count)
system.cpu.branchPred.committed_0::total            0                       # Number of branches finally committed  (Count)
system.cpu.branchPred.mispredicted_0::NoBranch            0                       # Number of committed branches that were mispredicted. (Count)
system.cpu.branchPred.mispredicted_0::Return            0                       # Number of committed branches that were mispredicted. (Count)
system.cpu.branchPred.mispredicted_0::CallDirect            0                       # Number of committed branches that were mispredicted. (Count)
system.cpu.branchPred.mispredicted_0::CallIndirect            0                       # Number of committed branches that were mispredicted. (Count)
system.cpu.branchPred.mispredicted_0::DirectCond            0                       # Number of committed branches that were mispredicted. (Count)
system.cpu.branchPred.mispredicted_0::DirectUncond            0                       # Number of committed branches that were mispredicted. (Count)
system.cpu.branchPred.mispredicted_0::IndirectCond            0                       # Number of committed branches that were mispredicted. (Count)
system.cpu.branchPred.mispredicted_0::IndirectUncond            0                       # Number of committed branches that were mispredicted. (Count)
system.cpu.branchPred.mispredicted_0::total            0                       # Number of committed branches that were mispredicted. (Count)
system.cpu.branchPred.targetProvider_0::NoTarget            0                       # The component providing the target for taken branches (Count)
system.cpu.branchPred.targetProvider_0::BTB            0                       # The component providing the target for taken branches (Count)
system.cpu.branchPred.targetProvider_0::RAS            0                       # The component providing the target for taken branches (Count)
system.cpu.branchPred.targetProvider_0::Indirect            0                       # The component providing the target for taken branches (Count)
system.cpu.branchPred.targetProvider_0::total            0                       # The component providing the target for taken branches (Count)
system.cpu.branchPred.targetWrong_0::NoBranch            0                       # Number of branches where the target was incorrect or not available at prediction time. (Count)
system.cpu.branchPred.targetWrong_0::Return            0                       # Number of branches where the target was incorrect or not available at prediction time. (Count)
system.cpu.branchPred.targetWrong_0::CallDirect            0                       # Number of branches where the target was incorrect or not available at prediction time. (Count)
system.cpu.branchPred.targetWrong_0::CallIndirect            0                       # Number of branches where the target was incorrect or not available at prediction time. (Count)
system.cpu.branchPred.targetWrong_0::DirectCond            0                       # Number of branches where the target was incorrect or not available at prediction time. (Count)
system.cpu.branchPred.targetWrong_0::DirectUncond            0                       # Number of branches where the target was incorrect or not available at prediction time. (Count)
system.cpu.branchPred.targetWrong_0::IndirectCond            0                       # Number of branches where the target was incorrect or not available at prediction time. (Count)
system.cpu.branchPred.targetWrong_0::IndirectUncond            0                       # Number of branches where the target was incorrect or not available at prediction time. (Count)
system.cpu.branchPred.targetWrong_0::total            0                       # Number of branches where the target was incorrect or not available at prediction time. (Count)
system.cpu.branchPred.condPredicted                 0                       # Number of conditional branches predicted (Count)
system.cpu.branchPred.condPredictedTaken            0                       # Number of conditional branches predicted as taken (Count)
system.cpu.branchPred.condIncorrect                 0                       # Number of conditional branches incorrect (Count)
system.cpu.branchPred.predTakenBTBMiss              0                       # Number of branches predicted taken but missed in BTB (Count)
system.cpu.branchPred.NotTakenMispredicted            0                       # Number branches predicted 'not taken' but turned out to be taken (Count)
system.cpu.branchPred.TakenMispredicted             0                       # Number branches predicted taken but are actually not taken (Count)
system.cpu.branchPred.BTBLookups                    0                       # Number of BTB lookups (Count)
system.cpu.branchPred.BTBUpdates                    0                       # Number of BTB updates (Count)
system.cpu.branchPred.BTBHits                       0                       # Number of BTB hits (Count)
system.cpu.branchPred.BTBHitRatio                 nan                       # BTB Hit Ratio (Ratio)
system.cpu.branchPred.BTBMispredicted               0                       # Number BTB mispredictions. No target found or target wrong (Count)
system.cpu.branchPred.indirectLookups               0                       # Number of indirect predictor lookups. (Count)
system.cpu.branchPred.indirectHits                  0                       # Number of indirect target hits. (Count)
system.cpu.branchPred.indirectMisses                0                       # Number of indirect misses. (Count)
system.cpu.branchPred.indirectMispredicted            0                       # Number of mispredicted indirect branches. (Count)
system.cpu.branchPred.btb.lookups::NoBranch            0                       # Number of BTB lookups (Count)
system.cpu.branchPred.btb.lookups::Return            0                       # Number of BTB lookups (Count)
system.cpu.branchPred.btb.lookups::CallDirect            0                       # Number of BTB lookups (Count)
system.cpu.branchPred.btb.lookups::CallIndirect            0                       # Number of BTB lookups (Count)
system.cpu.branchPred.btb.lookups::DirectCond            0                       # Number of BTB lookups (Count)
system.cpu.branchPred.btb.lookups::DirectUncond            0                       # Number of BTB lookups (Count)
system.cpu.branchPred.btb.lookups::IndirectCond            0                       # Number of BTB lookups (Count)
system.cpu.branchPred.btb.lookups::IndirectUncond            0                       # Number of BTB lookups (Count)
system.cpu.branchPred.btb.lookups::total            0                       # Number of BTB lookups (Count)
system.cpu.branchPred.btb.misses::NoBranch            0                       # Number of BTB misses (Count)
system.cpu.branchPred.btb.misses::Return            0                       # Number of BTB misses (Count)
system.cpu.branchPred.btb.misses::CallDirect            0                       # Number of BTB misses (Count)
system.cpu.branchPred.btb.misses::CallIndirect            0                       # Number of BTB misses (Count)
system.cpu.branchPred.btb.misses::DirectCond            0                       # Number of BTB misses (Count)
system.cpu.branchPred.btb.misses::DirectUncond            0                       # Number of BTB misses (Count)
system.cpu.branchPred.btb.misses::IndirectCond            0                       # Number of BTB misses (Count)
system.cpu.branchPred.btb.misses::IndirectUncond            0                       # Number of BTB misses (Count)
system.cpu.branchPred.btb.misses::total             0                       # Number of BTB misses (Count)
system.cpu.branchPred.btb.updates::NoBranch            0                       # Number of BTB updates (Count)
system.cpu.branchPred.btb.updates::Return            0                       # Number of BTB updates (Count)
system.cpu.branchPred.btb.updates::CallDirect            0                       # Number of BTB updates (Count)
system.cpu.branchPred.btb.updates::CallIndirect            0                       # Number of BTB updates (Count)
system.cpu.branchPred.btb.updates::DirectCond            0                       # Number of BTB updates (Count)
system.cpu.branchPred.btb.updates::DirectUncond            0                       # Number of BTB updates (Count)
system.cpu.branchPred.btb.updates::IndirectCond            0                       # Number of BTB updates (Count)
system.cpu.branchPred.btb.updates::IndirectUncond            0                       # Number of BTB updates (Count)
system.cpu.branchPred.btb.updates::total            0                       # Number of BTB updates (Count)
system.cpu.branchPred.btb.mispredict::NoBranch            0                       # Number of BTB mispredictions. No target found or target wrong. (Count)
system.cpu.branchPred.btb.mispredict::Return            0                       # Number of BTB mispredictions. No target found or target wrong. (Count)
system.cpu.branchPred.btb.mispredict::CallDirect            0                       # Number of BTB mispredictions. No target found or target wrong. (Count)
system.cpu.branchPred.btb.mispredict::CallIndirect            0                       # Number of BTB mispredictions. No target found or target wrong. (Count)
system.cpu.branchPred.btb.mispredict::DirectCond            0                       # Number of BTB mispredictions. No target found or target wrong. (Count)
system.cpu.branchPred.btb.mispredict::DirectUncond            0                       # Number of BTB mispredictions. No target found or target wrong. (Count)
system.cpu.branchPred.btb.mispredict::IndirectCond            0                       # Number of BTB mispredictions. No target found or target wrong. (Count)
system.cpu.branchPred.btb.mispredict::IndirectUncond            0                       # Number of BTB mispredictions. No target found or target wrong. (Count)
system.cpu.branchPred.btb.mispredict::total            0                       # Number of BTB mispredictions. No target found or target wrong. (Count)
system.cpu.branchPred.btb.power_state.pwrStateResidencyTicks::UNDEFINED 1089462616087                       # Cumulative time (in ticks) in various power states (Tick)
system.cpu.branchPred.indirectBranchPred.lookups            0                       # Number of lookups (Count)
system.cpu.branchPred.indirectBranchPred.hits            0                       # Number of hits of a tag (Count)
system.cpu.branchPred.indirectBranchPred.misses            0                       # Number of misses (Count)
system.cpu.branchPred.indirectBranchPred.targetRecords            0                       # Number of targets that where recorded/installed in the cache (Count)
system.cpu.branchPred.indirectBranchPred.indirectRecords            0                       # Number of indirect branches/calls recorded in the indirect hist (Count)
system.cpu.branchPred.indirectBranchPred.speculativeOverflows            0                       # Number of times more than the allowed capacity for speculative branches/calls where in flight and destroy the path history (Count)
system.cpu.branchPred.ras.pushes                    0                       # Number of times a PC was pushed onto the RAS (Count)
system.cpu.branchPred.ras.pops                      0                       # Number of times a PC was poped from the RAS (Count)
system.cpu.branchPred.ras.squashes                  0                       # Number of times the stack operation was squashed due to wrong speculation. (Count)
system.cpu.branchPred.ras.used                      0                       # Number of times the RAS is the provider (Count)
system.cpu.branchPred.ras.correct                   0                       # Number of times the RAS is the provider and the prediction is correct (Count)
system.cpu.branchPred.ras.incorrect                 0                       # Number of times the RAS is the provider and the prediction is wrong (Count)
system.cpu.commitStats0.numInsts             27334258                       # Number of instructions committed (thread level) (Count)
system.cpu.commitStats0.numOps               52665712                       # Number of ops (including micro ops) committed (thread level) (Count)
system.cpu.commitStats0.numInstsNotNOP              0                       # Number of instructions committed excluding NOPs or prefetches (Count)
system.cpu.commitStats0.numOpsNotNOP                0                       # Number of Ops (including micro ops) Simulated (Count)
system.cpu.commitStats0.cpi                  2.989353                       # CPI: cycles per instruction (thread level) ((Cycle/Count))
system.cpu.commitStats0.ipc                  0.334521                       # IPC: instructions per cycle (thread level) ((Count/Cycle))
system.cpu.commitStats0.numMemRefs                  0                       # Number of memory references committed (Count)
system.cpu.commitStats0.numFpInsts                  0                       # Number of float instructions (Count)
system.cpu.commitStats0.numIntInsts                 0                       # Number of integer instructions (Count)
system.cpu.commitStats0.numLoadInsts                0                       # Number of load instructions (Count)
system.cpu.commitStats0.numStoreInsts               0                       # Number of store instructions (Count)
system.cpu.commitStats0.numVecInsts                 0                       # Number of vector instructions (Count)
system.cpu.commitStats0.committedInstType::No_OpClass       591810      1.12%      1.12% # Class of committed instruction. (Count)
system.cpu.commitStats0.committedInstType::IntAlu     36616707     69.53%     70.65% # Class of committed instruction. (Count)
system.cpu.commitStats0.committedInstType::IntMult        88704      0.17%     70.82% # Class of committed instruction. (Count)
system.cpu.commitStats0.committedInstType::IntDiv        38794      0.07%     70.89% # Class of committed instruction. (Count)
system.cpu.commitStats0.committedInstType::FloatAdd       184305      0.35%     71.24% # Class of committed instruction. (Count)
system.cpu.commitStats0.committedInstType::FloatCmp            0      0.00%     71.24% # Class of committed instruction. (Count)
system.cpu.commitStats0.committedInstType::FloatCvt         1232      0.00%     71.24% # Class of committed instruction. (Count)
system.cpu.commitStats0.committedInstType::FloatMult            0      0.00%     71.24% # Class of committed instruction. (Count)
system.cpu.commitStats0.committedInstType::FloatMultAcc            0      0.00%     71.24% # Class of committed instruction. (Count)
system.cpu.commitStats0.committedInstType::FloatDiv            0      0.00%     71.24% # Class of committed instruction. (Count)
system.cpu.commitStats0.committedInstType::FloatMisc            0      0.00%     71.24% # Class of committed instruction. (Count)
system.cpu.commitStats0.committedInstType::FloatSqrt            0      0.00%     71.24% # Class of committed instruction. (Count)
system.cpu.commitStats0.committedInstType::SimdAdd         6510      0.01%     71.26% # Class of committed instruction. (Count)
system.cpu.commitStats0.committedInstType::SimdAddAcc            0      0.00%     71.26% # Class of committed instruction. (Count)
system.cpu.commitStats0.committedInstType::SimdAlu       101760      0.19%     71.45% # Class of committed instruction. (Count)
system.cpu.commitStats0.committedInstType::SimdCmp            6      0.00%     71.45% # Class of committed instruction. (Count)
system.cpu.commitStats0.committedInstType::SimdCvt        13504      0.03%     71.48% # Class of committed instruction. (Count)
system.cpu.commitStats0.committedInstType::SimdMisc       412105      0.78%     72.26% # Class of committed instruction. (Count)
system.cpu.commitStats0.committedInstType::SimdMult            0      0.00%     72.26% # Class of committed instruction. (Count)
system.cpu.commitStats0.committedInstType::SimdMultAcc            0      0.00%     72.26% # Class of committed instruction. (Count)
system.cpu.commitStats0.committedInstType::SimdMatMultAcc            0      0.00%     72.26% # Class of committed instruction. (Count)
system.cpu.commitStats0.committedInstType::SimdShift         1931      0.00%     72.26% # Class of committed instruction. (Count)
system.cpu.commitStats0.committedInstType::SimdShiftAcc            0      0.00%     72.26% # Class of committed instruction. (Count)
system.cpu.commitStats0.committedInstType::SimdDiv            0      0.00%     72.26% # Class of committed instruction. (Count)
system.cpu.commitStats0.committedInstType::SimdSqrt            0      0.00%     72.26% # Class of committed instruction. (Count)
system.cpu.commitStats0.committedInstType::SimdFloatAdd        44302      0.08%     72.35% # Class of committed instruction. (Count)
system.cpu.commitStats0.committedInstType::SimdFloatAlu            0      0.00%     72.35% # Class of committed instruction. (Count)
system.cpu.commitStats0.committedInstType::SimdFloatCmp            0      0.00%     72.35% # Class of committed instruction. (Count)
system.cpu.commitStats0.committedInstType::SimdFloatCvt        88604      0.17%     72.51% # Class of committed instruction. (Count)
system.cpu.commitStats0.committedInstType::SimdFloatDiv        44302      0.08%     72.60% # Class of committed instruction. (Count)
system.cpu.commitStats0.committedInstType::SimdFloatMisc            0      0.00%     72.60% # Class of committed instruction. (Count)
system.cpu.commitStats0.committedInstType::SimdFloatMult            0      0.00%     72.60% # Class of committed instruction. (Count)
system.cpu.commitStats0.committedInstType::SimdFloatMultAcc            0      0.00%     72.60% # Class of committed instruction. (Count)
system.cpu.commitStats0.committedInstType::SimdFloatMatMultAcc            0      0.00%     72.60% # Class of committed instruction. (Count)
system.cpu.commitStats0.committedInstType::SimdFloatSqrt            0      0.00%     72.60% # Class of committed instruction. (Count)
system.cpu.commitStats0.committedInstType::SimdReduceAdd            0      0.00%     72.60% # Class of committed instruction. (Count)
system.cpu.commitStats0.committedInstType::SimdReduceAlu            0      0.00%     72.60% # Class of committed instruction. (Count)
system.cpu.commitStats0.committedInstType::SimdReduceCmp            0      0.00%     72.60% # Class of committed instruction. (Count)
system.cpu.commitStats0.committedInstType::SimdFloatReduceAdd            0      0.00%     72.60% # Class of committed instruction. (Count)
system.cpu.commitStats0.committedInstType::SimdFloatReduceCmp            0      0.00%     72.60% # Class of committed instruction. (Count)
system.cpu.commitStats0.committedInstType::SimdAes            0      0.00%     72.60% # Class of committed instruction. (Count)
system.cpu.commitStats0.committedInstType::SimdAesMix            0      0.00%     72.60% # Class of committed instruction. (Count)
system.cpu.commitStats0.committedInstType::SimdSha1Hash            0      0.00%     72.60% # Class of committed instruction. (Count)
system.cpu.commitStats0.committedInstType::SimdSha1Hash2            0      0.00%     72.60% # Class of committed instruction. (Count)
system.cpu.commitStats0.committedInstType::SimdSha256Hash            0      0.00%     72.60% # Class of committed instruction. (Count)
system.cpu.commitStats0.committedInstType::SimdSha256Hash2            0      0.00%     72.60% # Class of committed instruction. (Count)
system.cpu.commitStats0.committedInstType::SimdShaSigma2            0      0.00%     72.60% # Class of committed instruction. (Count)
system.cpu.commitStats0.committedInstType::SimdShaSigma3            0      0.00%     72.60% # Class of committed instruction. (Count)
system.cpu.commitStats0.committedInstType::SimdPredAlu            0      0.00%     72.60% # Class of committed instruction. (Count)
system.cpu.commitStats0.committedInstType::Matrix            0      0.00%     72.60% # Class of committed instruction. (Count)
system.cpu.commitStats0.committedInstType::MatrixMov            0      0.00%     72.60% # Class of committed instruction. (Count)
system.cpu.commitStats0.committedInstType::MatrixOP            0      0.00%     72.60% # Class of committed instruction. (Count)
system.cpu.commitStats0.committedInstType::MemRead      9340967     17.74%     90.33% # Class of committed instruction. (Count)
system.cpu.commitStats0.committedInstType::MemWrite      4836853      9.18%     99.52% # Class of committed instruction. (Count)
system.cpu.commitStats0.committedInstType::FloatMemRead       194420      0.37%     99.89% # Class of committed instruction. (Count)
system.cpu.commitStats0.committedInstType::FloatMemWrite        58896      0.11%    100.00% # Class of committed instruction. (Count)
system.cpu.commitStats0.committedInstType::IprAccess            0      0.00%    100.00% # Class of committed instruction. (Count)
system.cpu.commitStats0.committedInstType::InstPrefetch            0      0.00%    100.00% # Class of committed instruction. (Count)
system.cpu.commitStats0.committedInstType::SimdUnitStrideLoad            0      0.00%    100.00% # Class of committed instruction. (Count)
system.cpu.commitStats0.committedInstType::SimdUnitStrideStore            0      0.00%    100.00% # Class of committed instruction. (Count)
system.cpu.commitStats0.committedInstType::SimdUnitStrideMaskLoad            0      0.00%    100.00% # Class of committed instruction. (Count)
system.cpu.commitStats0.committedInstType::SimdUnitStrideMaskStore            0      0.00%    100.00% # Class of committed instruction. (Count)
system.cpu.commitStats0.committedInstType::SimdStridedLoad            0      0.00%    100.00% # Class of committed instruction. (Count)
system.cpu.commitStats0.committedInstType::SimdStridedStore            0      0.00%    100.00% # Class of committed instruction. (Count)
system.cpu.commitStats0.committedInstType::SimdIndexedLoad            0      0.00%    100.00% # Class of committed instruction. (Count)
system.cpu.commitStats0.committedInstType::SimdIndexedStore            0      0.00%    100.00% # Class of committed instruction. (Count)
system.cpu.commitStats0.committedInstType::SimdWholeRegisterLoad            0      0.00%    100.00% # Class of committed instruction. (Count)
system.cpu.commitStats0.committedInstType::SimdWholeRegisterStore            0      0.00%    100.00% # Class of committed instruction. (Count)
system.cpu.commitStats0.committedInstType::SimdUnitStrideFaultOnlyFirstLoad            0      0.00%    100.00% # Class of committed instruction. (Count)
system.cpu.commitStats0.committedInstType::SimdUnitStrideSegmentedLoad            0      0.00%    100.00% # Class of committed instruction. (Count)
system.cpu.commitStats0.committedInstType::SimdUnitStrideSegmentedStore            0      0.00%    100.00% # Class of committed instruction. (Count)
system.cpu.commitStats0.committedInstType::SimdExt            0      0.00%    100.00% # Class of committed instruction. (Count)
system.cpu.commitStats0.committedInstType::SimdFloatExt            0      0.00%    100.00% # Class of committed instruction. (Count)
system.cpu.commitStats0.committedInstType::SimdConfig            0      0.00%    100.00% # Class of committed instruction. (Count)
system.cpu.commitStats0.committedInstType::total     52665712                       # Class of committed instruction. (Count)
system.cpu.executeStats0.numInsts                   0                       # Number of executed instructions (Count)
system.cpu.executeStats0.numNop                     0                       # Number of nop insts executed (Count)
system.cpu.executeStats0.numBranches                0                       # Number of branches executed (Count)
system.cpu.executeStats0.numLoadInsts               0                       # Number of load instructions executed (Count)
system.cpu.executeStats0.numStoreInsts              0                       # Number of stores executed (Count)
system.cpu.executeStats0.instRate                   0                       # Inst execution rate ((Count/Cycle))
system.cpu.executeStats0.numFpRegWrites             0                       # Number of times the floating registers were written (Count)
system.cpu.executeStats0.numMemRefs                 0                       # Number of memory refs (Count)
system.cpu.executeStats0.numVecAluAccesses            0                       # Number of vector alu accesses (Count)
system.cpu.executeStats0.numDiscardedOps     11465427                       # Number of ops (including micro ops) which were discarded before commit (Count)
system.cpu.fetch2.intInstructions                  93                       # Number of integer instructions successfully decoded (Count)
system.cpu.fetch2.fpInstructions                    0                       # Number of floating point instructions successfully decoded (Count)
system.cpu.fetch2.vecInstructions                   0                       # Number of SIMD instructions successfully decoded (Count)
system.cpu.fetch2.loadInstructions                  0                       # Number of memory load instructions successfully decoded (Count)
system.cpu.fetch2.storeInstructions                 0                       # Number of memory store instructions successfully decoded (Count)
system.cpu.fetch2.amoInstructions                   0                       # Number of memory atomic instructions successfully decoded (Count)
system.cpu.fetchStats0.numInsts                     0                       # Number of instructions fetched (thread level) (Count)
system.cpu.fetchStats0.numOps                       0                       # Number of ops (including micro ops) fetched (thread level) (Count)
system.cpu.fetchStats0.fetchRate                    0                       # Number of inst fetches per cycle ((Count/Cycle))
system.cpu.fetchStats0.branchRate                   0                       # Number of branch fetches per cycle (Ratio)
system.cpu.fetchStats0.numFetchSuspends             0                       # Number of times Execute suspended instruction fetching (Count)
system.cpu.interrupts.clk_domain.clock         213328                       # Clock period in ticks (Tick)
system.cpu.l1d.demandHits::cpu.data          17746129                       # number of demand (read+write) hits (Count)
system.cpu.l1d.demandHits::total             17746129                       # number of demand (read+write) hits (Count)
system.cpu.l1d.overallHits::cpu.data         17746130                       # number of overall hits (Count)
system.cpu.l1d.overallHits::total            17746130                       # number of overall hits (Count)
system.cpu.l1d.demandMisses::cpu.data           43040                       # number of demand (read+write) misses (Count)
system.cpu.l1d.demandMisses::total              43040                       # number of demand (read+write) misses (Count)
system.cpu.l1d.overallMisses::cpu.data          43041                       # number of overall misses (Count)
system.cpu.l1d.overallMisses::total             43041                       # number of overall misses (Count)
system.cpu.l1d.demandMissLatency::cpu.data   9175663936                       # number of demand (read+write) miss ticks (Tick)
system.cpu.l1d.demandMissLatency::total    9175663936                       # number of demand (read+write) miss ticks (Tick)
system.cpu.l1d.overallMissLatency::cpu.data   9175663936                       # number of overall miss ticks (Tick)
system.cpu.l1d.overallMissLatency::total   9175663936                       # number of overall miss ticks (Tick)
system.cpu.l1d.demandAccesses::cpu.data      17789169                       # number of demand (read+write) accesses (Count)
system.cpu.l1d.demandAccesses::total         17789169                       # number of demand (read+write) accesses (Count)
system.cpu.l1d.overallAccesses::cpu.data     17789171                       # number of overall (read+write) accesses (Count)
system.cpu.l1d.overallAccesses::total        17789171                       # number of overall (read+write) accesses (Count)
system.cpu.l1d.demandMissRate::cpu.data      0.002419                       # miss rate for demand accesses (Ratio)
system.cpu.l1d.demandMissRate::total         0.002419                       # miss rate for demand accesses (Ratio)
system.cpu.l1d.overallMissRate::cpu.data     0.002420                       # miss rate for overall accesses (Ratio)
system.cpu.l1d.overallMissRate::total        0.002420                       # miss rate for overall accesses (Ratio)
system.cpu.l1d.demandAvgMissLatency::cpu.data 213189.217844                       # average overall miss latency in ticks ((Tick/Count))
system.cpu.l1d.demandAvgMissLatency::total 213189.217844                       # average overall miss latency in ticks ((Tick/Count))
system.cpu.l1d.overallAvgMissLatency::cpu.data 213184.264678                       # average overall miss latency ((Tick/Count))
system.cpu.l1d.overallAvgMissLatency::total 213184.264678                       # average overall miss latency ((Tick/Count))
system.cpu.l1d.blockedCycles::no_mshrs              0                       # number of cycles access was blocked (Cycle)
system.cpu.l1d.blockedCycles::no_targets            0                       # number of cycles access was blocked (Cycle)
system.cpu.l1d.blockedCauses::no_mshrs              0                       # number of times access was blocked (Count)
system.cpu.l1d.blockedCauses::no_targets            0                       # number of times access was blocked (Count)
system.cpu.l1d.avgBlocked::no_mshrs               nan                       # average number of cycles each access was blocked ((Cycle/Count))
system.cpu.l1d.avgBlocked::no_targets             nan                       # average number of cycles each access was blocked ((Cycle/Count))
system.cpu.l1d.writebacks::writebacks           16383                       # number of writebacks (Count)
system.cpu.l1d.writebacks::total                16383                       # number of writebacks (Count)
system.cpu.l1d.demandMshrHits::cpu.data          2122                       # number of demand (read+write) MSHR hits (Count)
system.cpu.l1d.demandMshrHits::total             2122                       # number of demand (read+write) MSHR hits (Count)
system.cpu.l1d.overallMshrHits::cpu.data         2122                       # number of overall MSHR hits (Count)
system.cpu.l1d.overallMshrHits::total            2122                       # number of overall MSHR hits (Count)
system.cpu.l1d.demandMshrMisses::cpu.data        40918                       # number of demand (read+write) MSHR misses (Count)
system.cpu.l1d.demandMshrMisses::total          40918                       # number of demand (read+write) MSHR misses (Count)
system.cpu.l1d.overallMshrMisses::cpu.data        40919                       # number of overall MSHR misses (Count)
system.cpu.l1d.overallMshrMisses::total         40919                       # number of overall MSHR misses (Count)
system.cpu.l1d.demandMshrMissLatency::cpu.data   8179542173                       # number of demand (read+write) MSHR miss ticks (Tick)
system.cpu.l1d.demandMshrMissLatency::total   8179542173                       # number of demand (read+write) MSHR miss ticks (Tick)
system.cpu.l1d.overallMshrMissLatency::cpu.data   8179742168                       # number of overall MSHR miss ticks (Tick)
system.cpu.l1d.overallMshrMissLatency::total   8179742168                       # number of overall MSHR miss ticks (Tick)
system.cpu.l1d.demandMshrMissRate::cpu.data     0.002300                       # mshr miss ratio for demand accesses (Ratio)
system.cpu.l1d.demandMshrMissRate::total     0.002300                       # mshr miss ratio for demand accesses (Ratio)
system.cpu.l1d.overallMshrMissRate::cpu.data     0.002300                       # mshr miss ratio for overall accesses (Ratio)
system.cpu.l1d.overallMshrMissRate::total     0.002300                       # mshr miss ratio for overall accesses (Ratio)
system.cpu.l1d.demandAvgMshrMissLatency::cpu.data 199900.830270                       # average overall mshr miss latency ((Tick/Count))
system.cpu.l1d.demandAvgMshrMissLatency::total 199900.830270                       # average overall mshr miss latency ((Tick/Count))
system.cpu.l1d.overallAvgMshrMissLatency::cpu.data 199900.832572                       # average overall mshr miss latency ((Tick/Count))
system.cpu.l1d.overallAvgMshrMissLatency::total 199900.832572                       # average overall mshr miss latency ((Tick/Count))
system.cpu.l1d.replacements                     40924                       # number of replacements (Count)
system.cpu.l1d.LockedRMWReadReq.hits::cpu.data          436                       # number of LockedRMWReadReq hits (Count)
system.cpu.l1d.LockedRMWReadReq.hits::total          436                       # number of LockedRMWReadReq hits (Count)
system.cpu.l1d.LockedRMWReadReq.misses::cpu.data           69                       # number of LockedRMWReadReq misses (Count)
system.cpu.l1d.LockedRMWReadReq.misses::total           69                       # number of LockedRMWReadReq misses (Count)
system.cpu.l1d.LockedRMWReadReq.missLatency::cpu.data     14626301                       # number of LockedRMWReadReq miss ticks (Tick)
system.cpu.l1d.LockedRMWReadReq.missLatency::total     14626301                       # number of LockedRMWReadReq miss ticks (Tick)
system.cpu.l1d.LockedRMWReadReq.accesses::cpu.data          505                       # number of LockedRMWReadReq accesses(hits+misses) (Count)
system.cpu.l1d.LockedRMWReadReq.accesses::total          505                       # number of LockedRMWReadReq accesses(hits+misses) (Count)
system.cpu.l1d.LockedRMWReadReq.missRate::cpu.data     0.136634                       # miss rate for LockedRMWReadReq accesses (Ratio)
system.cpu.l1d.LockedRMWReadReq.missRate::total     0.136634                       # miss rate for LockedRMWReadReq accesses (Ratio)
system.cpu.l1d.LockedRMWReadReq.avgMissLatency::cpu.data 211975.376812                       # average LockedRMWReadReq miss latency ((Tick/Count))
system.cpu.l1d.LockedRMWReadReq.avgMissLatency::total 211975.376812                       # average LockedRMWReadReq miss latency ((Tick/Count))
system.cpu.l1d.LockedRMWReadReq.mshrMisses::cpu.data           69                       # number of LockedRMWReadReq MSHR misses (Count)
system.cpu.l1d.LockedRMWReadReq.mshrMisses::total           69                       # number of LockedRMWReadReq MSHR misses (Count)
system.cpu.l1d.LockedRMWReadReq.mshrMissLatency::cpu.data     48732115                       # number of LockedRMWReadReq MSHR miss ticks (Tick)
system.cpu.l1d.LockedRMWReadReq.mshrMissLatency::total     48732115                       # number of LockedRMWReadReq MSHR miss ticks (Tick)
system.cpu.l1d.LockedRMWReadReq.mshrMissRate::cpu.data     0.136634                       # mshr miss rate for LockedRMWReadReq accesses (Ratio)
system.cpu.l1d.LockedRMWReadReq.mshrMissRate::total     0.136634                       # mshr miss rate for LockedRMWReadReq accesses (Ratio)
system.cpu.l1d.LockedRMWReadReq.avgMshrMissLatency::cpu.data 706262.536232                       # average LockedRMWReadReq mshr miss latency ((Tick/Count))
system.cpu.l1d.LockedRMWReadReq.avgMshrMissLatency::total 706262.536232                       # average LockedRMWReadReq mshr miss latency ((Tick/Count))
system.cpu.l1d.LockedRMWWriteReq.hits::cpu.data          505                       # number of LockedRMWWriteReq hits (Count)
system.cpu.l1d.LockedRMWWriteReq.hits::total          505                       # number of LockedRMWWriteReq hits (Count)
system.cpu.l1d.LockedRMWWriteReq.accesses::cpu.data          505                       # number of LockedRMWWriteReq accesses(hits+misses) (Count)
system.cpu.l1d.LockedRMWWriteReq.accesses::total          505                       # number of LockedRMWWriteReq accesses(hits+misses) (Count)
system.cpu.l1d.ReadReq.hits::cpu.data        12867775                       # number of ReadReq hits (Count)
system.cpu.l1d.ReadReq.hits::total           12867775                       # number of ReadReq hits (Count)
system.cpu.l1d.ReadReq.misses::cpu.data         26495                       # number of ReadReq misses (Count)
system.cpu.l1d.ReadReq.misses::total            26495                       # number of ReadReq misses (Count)
system.cpu.l1d.ReadReq.missLatency::cpu.data   5741069803                       # number of ReadReq miss ticks (Tick)
system.cpu.l1d.ReadReq.missLatency::total   5741069803                       # number of ReadReq miss ticks (Tick)
system.cpu.l1d.ReadReq.accesses::cpu.data     12894270                       # number of ReadReq accesses(hits+misses) (Count)
system.cpu.l1d.ReadReq.accesses::total       12894270                       # number of ReadReq accesses(hits+misses) (Count)
system.cpu.l1d.ReadReq.missRate::cpu.data     0.002055                       # miss rate for ReadReq accesses (Ratio)
system.cpu.l1d.ReadReq.missRate::total       0.002055                       # miss rate for ReadReq accesses (Ratio)
system.cpu.l1d.ReadReq.avgMissLatency::cpu.data 216685.027477                       # average ReadReq miss latency ((Tick/Count))
system.cpu.l1d.ReadReq.avgMissLatency::total 216685.027477                       # average ReadReq miss latency ((Tick/Count))
system.cpu.l1d.ReadReq.mshrHits::cpu.data          690                       # number of ReadReq MSHR hits (Count)
system.cpu.l1d.ReadReq.mshrHits::total            690                       # number of ReadReq MSHR hits (Count)
system.cpu.l1d.ReadReq.mshrMisses::cpu.data        25805                       # number of ReadReq MSHR misses (Count)
system.cpu.l1d.ReadReq.mshrMisses::total        25805                       # number of ReadReq MSHR misses (Count)
system.cpu.l1d.ReadReq.mshrMissLatency::cpu.data   5235455777                       # number of ReadReq MSHR miss ticks (Tick)
system.cpu.l1d.ReadReq.mshrMissLatency::total   5235455777                       # number of ReadReq MSHR miss ticks (Tick)
system.cpu.l1d.ReadReq.mshrMissRate::cpu.data     0.002001                       # mshr miss rate for ReadReq accesses (Ratio)
system.cpu.l1d.ReadReq.mshrMissRate::total     0.002001                       # mshr miss rate for ReadReq accesses (Ratio)
system.cpu.l1d.ReadReq.avgMshrMissLatency::cpu.data 202885.323658                       # average ReadReq mshr miss latency ((Tick/Count))
system.cpu.l1d.ReadReq.avgMshrMissLatency::total 202885.323658                       # average ReadReq mshr miss latency ((Tick/Count))
system.cpu.l1d.SoftPFReq.hits::cpu.data             1                       # number of SoftPFReq hits (Count)
system.cpu.l1d.SoftPFReq.hits::total                1                       # number of SoftPFReq hits (Count)
system.cpu.l1d.SoftPFReq.misses::cpu.data            1                       # number of SoftPFReq misses (Count)
system.cpu.l1d.SoftPFReq.misses::total              1                       # number of SoftPFReq misses (Count)
system.cpu.l1d.SoftPFReq.accesses::cpu.data            2                       # number of SoftPFReq accesses(hits+misses) (Count)
system.cpu.l1d.SoftPFReq.accesses::total            2                       # number of SoftPFReq accesses(hits+misses) (Count)
system.cpu.l1d.SoftPFReq.missRate::cpu.data     0.500000                       # miss rate for SoftPFReq accesses (Ratio)
system.cpu.l1d.SoftPFReq.missRate::total     0.500000                       # miss rate for SoftPFReq accesses (Ratio)
system.cpu.l1d.SoftPFReq.mshrMisses::cpu.data            1                       # number of SoftPFReq MSHR misses (Count)
system.cpu.l1d.SoftPFReq.mshrMisses::total            1                       # number of SoftPFReq MSHR misses (Count)
system.cpu.l1d.SoftPFReq.mshrMissLatency::cpu.data       199995                       # number of SoftPFReq MSHR miss ticks (Tick)
system.cpu.l1d.SoftPFReq.mshrMissLatency::total       199995                       # number of SoftPFReq MSHR miss ticks (Tick)
system.cpu.l1d.SoftPFReq.mshrMissRate::cpu.data     0.500000                       # mshr miss rate for SoftPFReq accesses (Ratio)
system.cpu.l1d.SoftPFReq.mshrMissRate::total     0.500000                       # mshr miss rate for SoftPFReq accesses (Ratio)
system.cpu.l1d.SoftPFReq.avgMshrMissLatency::cpu.data       199995                       # average SoftPFReq mshr miss latency ((Tick/Count))
system.cpu.l1d.SoftPFReq.avgMshrMissLatency::total       199995                       # average SoftPFReq mshr miss latency ((Tick/Count))
system.cpu.l1d.WriteReq.hits::cpu.data        4878354                       # number of WriteReq hits (Count)
system.cpu.l1d.WriteReq.hits::total           4878354                       # number of WriteReq hits (Count)
system.cpu.l1d.WriteReq.misses::cpu.data        16545                       # number of WriteReq misses (Count)
system.cpu.l1d.WriteReq.misses::total           16545                       # number of WriteReq misses (Count)
system.cpu.l1d.WriteReq.missLatency::cpu.data   3434594133                       # number of WriteReq miss ticks (Tick)
system.cpu.l1d.WriteReq.missLatency::total   3434594133                       # number of WriteReq miss ticks (Tick)
system.cpu.l1d.WriteReq.accesses::cpu.data      4894899                       # number of WriteReq accesses(hits+misses) (Count)
system.cpu.l1d.WriteReq.accesses::total       4894899                       # number of WriteReq accesses(hits+misses) (Count)
system.cpu.l1d.WriteReq.missRate::cpu.data     0.003380                       # miss rate for WriteReq accesses (Ratio)
system.cpu.l1d.WriteReq.missRate::total      0.003380                       # miss rate for WriteReq accesses (Ratio)
system.cpu.l1d.WriteReq.avgMissLatency::cpu.data 207591.062738                       # average WriteReq miss latency ((Tick/Count))
system.cpu.l1d.WriteReq.avgMissLatency::total 207591.062738                       # average WriteReq miss latency ((Tick/Count))
system.cpu.l1d.WriteReq.mshrHits::cpu.data         1432                       # number of WriteReq MSHR hits (Count)
system.cpu.l1d.WriteReq.mshrHits::total          1432                       # number of WriteReq MSHR hits (Count)
system.cpu.l1d.WriteReq.mshrMisses::cpu.data        15113                       # number of WriteReq MSHR misses (Count)
system.cpu.l1d.WriteReq.mshrMisses::total        15113                       # number of WriteReq MSHR misses (Count)
system.cpu.l1d.WriteReq.mshrMissLatency::cpu.data   2944086396                       # number of WriteReq MSHR miss ticks (Tick)
system.cpu.l1d.WriteReq.mshrMissLatency::total   2944086396                       # number of WriteReq MSHR miss ticks (Tick)
system.cpu.l1d.WriteReq.mshrMissRate::cpu.data     0.003087                       # mshr miss rate for WriteReq accesses (Ratio)
system.cpu.l1d.WriteReq.mshrMissRate::total     0.003087                       # mshr miss rate for WriteReq accesses (Ratio)
system.cpu.l1d.WriteReq.avgMshrMissLatency::cpu.data 194804.896182                       # average WriteReq mshr miss latency ((Tick/Count))
system.cpu.l1d.WriteReq.avgMshrMissLatency::total 194804.896182                       # average WriteReq mshr miss latency ((Tick/Count))
system.cpu.l1d.power_state.pwrStateResidencyTicks::UNDEFINED 1089462616087                       # Cumulative time (in ticks) in various power states (Tick)
system.cpu.l1d.tags.tagsInUse               63.998849                       # Average ticks per tags in use ((Tick/Count))
system.cpu.l1d.tags.totalRefs                  864731                       # Total number of references to valid blocks. (Count)
system.cpu.l1d.tags.sampledRefs                 40924                       # Sample count of references to valid blocks. (Count)
system.cpu.l1d.tags.avgRefs                 21.130168                       # Average number of references to valid blocks. ((Count/Count))
system.cpu.l1d.tags.warmupTick                 546653                       # The tick when the warmup percentage was hit. (Tick)
system.cpu.l1d.tags.occupancies::cpu.data    63.998849                       # Average occupied blocks per tick, per requestor ((Count/Tick))
system.cpu.l1d.tags.avgOccs::cpu.data        0.999982                       # Average percentage of cache occupancy ((Ratio/Tick))
system.cpu.l1d.tags.avgOccs::total           0.999982                       # Average percentage of cache occupancy ((Ratio/Tick))
system.cpu.l1d.tags.occupanciesTaskId::1024           64                       # Occupied blocks per task id (Count)
system.cpu.l1d.tags.ageTaskId_1024::4              64                       # Occupied blocks per task id, per block age (Count)
system.cpu.l1d.tags.ratioOccsTaskId::1024            1                       # Ratio of occupied blocks and all blocks, per task id (Ratio)
system.cpu.l1d.tags.tagAccesses            1138612572                       # Number of tag accesses (Count)
system.cpu.l1d.tags.dataAccesses           1138612572                       # Number of data accesses (Count)
system.cpu.l1d.tags.power_state.pwrStateResidencyTicks::UNDEFINED 1089462616087                       # Cumulative time (in ticks) in various power states (Tick)
system.cpu.l1i.demandHits::cpu.inst          11284601                       # number of demand (read+write) hits (Count)
system.cpu.l1i.demandHits::total             11284601                       # number of demand (read+write) hits (Count)
system.cpu.l1i.overallHits::cpu.inst         11284601                       # number of overall hits (Count)
system.cpu.l1i.overallHits::total            11284601                       # number of overall hits (Count)
system.cpu.l1i.demandMisses::cpu.inst           42303                       # number of demand (read+write) misses (Count)
system.cpu.l1i.demandMisses::total              42303                       # number of demand (read+write) misses (Count)
system.cpu.l1i.overallMisses::cpu.inst          42303                       # number of overall misses (Count)
system.cpu.l1i.overallMisses::total             42303                       # number of overall misses (Count)
system.cpu.l1i.demandMissLatency::cpu.inst   8841578955                       # number of demand (read+write) miss ticks (Tick)
system.cpu.l1i.demandMissLatency::total    8841578955                       # number of demand (read+write) miss ticks (Tick)
system.cpu.l1i.overallMissLatency::cpu.inst   8841578955                       # number of overall miss ticks (Tick)
system.cpu.l1i.overallMissLatency::total   8841578955                       # number of overall miss ticks (Tick)
system.cpu.l1i.demandAccesses::cpu.inst      11326904                       # number of demand (read+write) accesses (Count)
system.cpu.l1i.demandAccesses::total         11326904                       # number of demand (read+write) accesses (Count)
system.cpu.l1i.overallAccesses::cpu.inst     11326904                       # number of overall (read+write) accesses (Count)
system.cpu.l1i.overallAccesses::total        11326904                       # number of overall (read+write) accesses (Count)
system.cpu.l1i.demandMissRate::cpu.inst      0.003735                       # miss rate for demand accesses (Ratio)
system.cpu.l1i.demandMissRate::total         0.003735                       # miss rate for demand accesses (Ratio)
system.cpu.l1i.overallMissRate::cpu.inst     0.003735                       # miss rate for overall accesses (Ratio)
system.cpu.l1i.overallMissRate::total        0.003735                       # miss rate for overall accesses (Ratio)
system.cpu.l1i.demandAvgMissLatency::cpu.inst 209005.955961                       # average overall miss latency in ticks ((Tick/Count))
system.cpu.l1i.demandAvgMissLatency::total 209005.955961                       # average overall miss latency in ticks ((Tick/Count))
system.cpu.l1i.overallAvgMissLatency::cpu.inst 209005.955961                       # average overall miss latency ((Tick/Count))
system.cpu.l1i.overallAvgMissLatency::total 209005.955961                       # average overall miss latency ((Tick/Count))
system.cpu.l1i.blockedCycles::no_mshrs              0                       # number of cycles access was blocked (Cycle)
system.cpu.l1i.blockedCycles::no_targets            0                       # number of cycles access was blocked (Cycle)
system.cpu.l1i.blockedCauses::no_mshrs              0                       # number of times access was blocked (Count)
system.cpu.l1i.blockedCauses::no_targets            0                       # number of times access was blocked (Count)
system.cpu.l1i.avgBlocked::no_mshrs               nan                       # average number of cycles each access was blocked ((Cycle/Count))
system.cpu.l1i.avgBlocked::no_targets             nan                       # average number of cycles each access was blocked ((Cycle/Count))
system.cpu.l1i.demandMshrMisses::cpu.inst        42303                       # number of demand (read+write) MSHR misses (Count)
system.cpu.l1i.demandMshrMisses::total          42303                       # number of demand (read+write) MSHR misses (Count)
system.cpu.l1i.overallMshrMisses::cpu.inst        42303                       # number of overall MSHR misses (Count)
system.cpu.l1i.overallMshrMisses::total         42303                       # number of overall MSHR misses (Count)
system.cpu.l1i.demandMshrMissLatency::cpu.inst   8277566389                       # number of demand (read+write) MSHR miss ticks (Tick)
system.cpu.l1i.demandMshrMissLatency::total   8277566389                       # number of demand (read+write) MSHR miss ticks (Tick)
system.cpu.l1i.overallMshrMissLatency::cpu.inst   8277566389                       # number of overall MSHR miss ticks (Tick)
system.cpu.l1i.overallMshrMissLatency::total   8277566389                       # number of overall MSHR miss ticks (Tick)
system.cpu.l1i.demandMshrMissRate::cpu.inst     0.003735                       # mshr miss ratio for demand accesses (Ratio)
system.cpu.l1i.demandMshrMissRate::total     0.003735                       # mshr miss ratio for demand accesses (Ratio)
system.cpu.l1i.overallMshrMissRate::cpu.inst     0.003735                       # mshr miss ratio for overall accesses (Ratio)
system.cpu.l1i.overallMshrMissRate::total     0.003735                       # mshr miss ratio for overall accesses (Ratio)
system.cpu.l1i.demandAvgMshrMissLatency::cpu.inst 195673.271139                       # average overall mshr miss latency ((Tick/Count))
system.cpu.l1i.demandAvgMshrMissLatency::total 195673.271139                       # average overall mshr miss latency ((Tick/Count))
system.cpu.l1i.overallAvgMshrMissLatency::cpu.inst 195673.271139                       # average overall mshr miss latency ((Tick/Count))
system.cpu.l1i.overallAvgMshrMissLatency::total 195673.271139                       # average overall mshr miss latency ((Tick/Count))
system.cpu.l1i.replacements                     42238                       # number of replacements (Count)
system.cpu.l1i.ReadReq.hits::cpu.inst        11284601                       # number of ReadReq hits (Count)
system.cpu.l1i.ReadReq.hits::total           11284601                       # number of ReadReq hits (Count)
system.cpu.l1i.ReadReq.misses::cpu.inst         42303                       # number of ReadReq misses (Count)
system.cpu.l1i.ReadReq.misses::total            42303                       # number of ReadReq misses (Count)
system.cpu.l1i.ReadReq.missLatency::cpu.inst   8841578955                       # number of ReadReq miss ticks (Tick)
system.cpu.l1i.ReadReq.missLatency::total   8841578955                       # number of ReadReq miss ticks (Tick)
system.cpu.l1i.ReadReq.accesses::cpu.inst     11326904                       # number of ReadReq accesses(hits+misses) (Count)
system.cpu.l1i.ReadReq.accesses::total       11326904                       # number of ReadReq accesses(hits+misses) (Count)
system.cpu.l1i.ReadReq.missRate::cpu.inst     0.003735                       # miss rate for ReadReq accesses (Ratio)
system.cpu.l1i.ReadReq.missRate::total       0.003735                       # miss rate for ReadReq accesses (Ratio)
system.cpu.l1i.ReadReq.avgMissLatency::cpu.inst 209005.955961                       # average ReadReq miss latency ((Tick/Count))
system.cpu.l1i.ReadReq.avgMissLatency::total 209005.955961                       # average ReadReq miss latency ((Tick/Count))
system.cpu.l1i.ReadReq.mshrMisses::cpu.inst        42303                       # number of ReadReq MSHR misses (Count)
system.cpu.l1i.ReadReq.mshrMisses::total        42303                       # number of ReadReq MSHR misses (Count)
system.cpu.l1i.ReadReq.mshrMissLatency::cpu.inst   8277566389                       # number of ReadReq MSHR miss ticks (Tick)
system.cpu.l1i.ReadReq.mshrMissLatency::total   8277566389                       # number of ReadReq MSHR miss ticks (Tick)
system.cpu.l1i.ReadReq.mshrMissRate::cpu.inst     0.003735                       # mshr miss rate for ReadReq accesses (Ratio)
system.cpu.l1i.ReadReq.mshrMissRate::total     0.003735                       # mshr miss rate for ReadReq accesses (Ratio)
system.cpu.l1i.ReadReq.avgMshrMissLatency::cpu.inst 195673.271139                       # average ReadReq mshr miss latency ((Tick/Count))
system.cpu.l1i.ReadReq.avgMshrMissLatency::total 195673.271139                       # average ReadReq mshr miss latency ((Tick/Count))
system.cpu.l1i.power_state.pwrStateResidencyTicks::UNDEFINED 1089462616087                       # Cumulative time (in ticks) in various power states (Tick)
system.cpu.l1i.tags.tagsInUse               63.996614                       # Average ticks per tags in use ((Tick/Count))
system.cpu.l1i.tags.totalRefs                  827490                       # Total number of references to valid blocks. (Count)
system.cpu.l1i.tags.sampledRefs                 42238                       # Sample count of references to valid blocks. (Count)
system.cpu.l1i.tags.avgRefs                 19.591126                       # Average number of references to valid blocks. ((Count/Count))
system.cpu.l1i.tags.warmupTick                 213328                       # The tick when the warmup percentage was hit. (Tick)
system.cpu.l1i.tags.occupancies::cpu.inst    63.996614                       # Average occupied blocks per tick, per requestor ((Count/Tick))
system.cpu.l1i.tags.avgOccs::cpu.inst        0.999947                       # Average percentage of cache occupancy ((Ratio/Tick))
system.cpu.l1i.tags.avgOccs::total           0.999947                       # Average percentage of cache occupancy ((Ratio/Tick))
system.cpu.l1i.tags.occupanciesTaskId::1024           64                       # Occupied blocks per task id (Count)
system.cpu.l1i.tags.ageTaskId_1024::0               3                       # Occupied blocks per task id, per block age (Count)
system.cpu.l1i.tags.ageTaskId_1024::4              61                       # Occupied blocks per task id, per block age (Count)
system.cpu.l1i.tags.ratioOccsTaskId::1024            1                       # Ratio of occupied blocks and all blocks, per task id (Ratio)
system.cpu.l1i.tags.tagAccesses             724964158                       # Number of tag accesses (Count)
system.cpu.l1i.tags.dataAccesses            724964158                       # Number of data accesses (Count)
system.cpu.l1i.tags.power_state.pwrStateResidencyTicks::UNDEFINED 1089462616087                       # Cumulative time (in ticks) in various power states (Tick)
system.cpu.mmu.dtb.rdAccesses                12902248                       # TLB accesses on read requests (Count)
system.cpu.mmu.dtb.wrAccesses                 5031897                       # TLB accesses on write requests (Count)
system.cpu.mmu.dtb.rdMisses                      6306                       # TLB misses on read requests (Count)
system.cpu.mmu.dtb.wrMisses                       768                       # TLB misses on write requests (Count)
system.cpu.mmu.dtb.walker.power_state.pwrStateResidencyTicks::UNDEFINED 1089462616087                       # Cumulative time (in ticks) in various power states (Tick)
system.cpu.mmu.itb.rdAccesses                       0                       # TLB accesses on read requests (Count)
system.cpu.mmu.itb.wrAccesses                11327048                       # TLB accesses on write requests (Count)
system.cpu.mmu.itb.rdMisses                         0                       # TLB misses on read requests (Count)
system.cpu.mmu.itb.wrMisses                       500                       # TLB misses on write requests (Count)
system.cpu.mmu.itb.walker.power_state.pwrStateResidencyTicks::UNDEFINED 1089462616087                       # Cumulative time (in ticks) in various power states (Tick)
system.cpu.power_state.pwrStateResidencyTicks::ON 1089462616087                       # Cumulative time (in ticks) in various power states (Tick)
system.cpu.thread_0.numInsts                 27334258                       # Number of Instructions committed (Count)
system.cpu.thread_0.numOps                   52665712                       # Number of Ops committed (Count)
system.cpu.thread_0.numMemRefs                      0                       # Number of Memory References (Count)
system.cpu.workload.numSyscalls                 44399                       # Number of system calls (Count)
system.mem_ctrl.avgPriority_writebacks::samples     15449.00                       # Average QoS priority value for accepted requests (Count)
system.mem_ctrl.avgPriority_cpu.inst::samples     42303.00                       # Average QoS priority value for accepted requests (Count)
system.mem_ctrl.avgPriority_cpu.data::samples     39369.00                       # Average QoS priority value for accepted requests (Count)
system.mem_ctrl.priorityMinLatency       0.000000018750                       # per QoS priority minimum request to response latency (Second)
system.mem_ctrl.priorityMaxLatency       0.010699231680                       # per QoS priority maximum request to response latency (Second)
system.mem_ctrl.numReadWriteTurnArounds           860                       # Number of turnarounds from READ to WRITE (Count)
system.mem_ctrl.numWriteReadTurnArounds           860                       # Number of turnarounds from WRITE to READ (Count)
system.mem_ctrl.numStayReadState               459423                       # Number of times bus staying in READ state (Count)
system.mem_ctrl.numStayWriteState               14592                       # Number of times bus staying in WRITE state (Count)
system.mem_ctrl.readReqs                        83291                       # Number of read requests accepted (Count)
system.mem_ctrl.writeReqs                       16383                       # Number of write requests accepted (Count)
system.mem_ctrl.readBursts                      83291                       # Number of controller read bursts, including those serviced by the write queue (Count)
system.mem_ctrl.writeBursts                     16383                       # Number of controller write bursts, including those merged in the write queue (Count)
system.mem_ctrl.servicedByWrQ                    1619                       # Number of controller read bursts serviced by the write queue (Count)
system.mem_ctrl.mergedWrBursts                    934                       # Number of controller write bursts merged with an existing one (Count)
system.mem_ctrl.neitherReadNorWriteReqs             0                       # Number of requests that are neither read nor write (Count)
system.mem_ctrl.avgRdQLen                        1.00                       # Average read queue length when enqueuing ((Count/Tick))
system.mem_ctrl.avgWrQLen                       27.72                       # Average write queue length when enqueuing ((Count/Tick))
system.mem_ctrl.numRdRetry                          0                       # Number of times read queue was full causing retry (Count)
system.mem_ctrl.numWrRetry                          0                       # Number of times write queue was full causing retry (Count)
system.mem_ctrl.readPktSize::0                      0                       # Read request sizes (log2) (Count)
system.mem_ctrl.readPktSize::1                      0                       # Read request sizes (log2) (Count)
system.mem_ctrl.readPktSize::2                      0                       # Read request sizes (log2) (Count)
system.mem_ctrl.readPktSize::3                      0                       # Read request sizes (log2) (Count)
system.mem_ctrl.readPktSize::4                      0                       # Read request sizes (log2) (Count)
system.mem_ctrl.readPktSize::5                      0                       # Read request sizes (log2) (Count)
system.mem_ctrl.readPktSize::6                  83291                       # Read request sizes (log2) (Count)
system.mem_ctrl.writePktSize::0                     0                       # Write request sizes (log2) (Count)
system.mem_ctrl.writePktSize::1                     0                       # Write request sizes (log2) (Count)
system.mem_ctrl.writePktSize::2                     0                       # Write request sizes (log2) (Count)
system.mem_ctrl.writePktSize::3                     0                       # Write request sizes (log2) (Count)
system.mem_ctrl.writePktSize::4                     0                       # Write request sizes (log2) (Count)
system.mem_ctrl.writePktSize::5                     0                       # Write request sizes (log2) (Count)
system.mem_ctrl.writePktSize::6                 16383                       # Write request sizes (log2) (Count)
system.mem_ctrl.rdQLenPdf::0                    80652                       # What read queue length does an incoming req see (Count)
system.mem_ctrl.rdQLenPdf::1                     1011                       # What read queue length does an incoming req see (Count)
system.mem_ctrl.rdQLenPdf::2                        9                       # What read queue length does an incoming req see (Count)
system.mem_ctrl.rdQLenPdf::3                        0                       # What read queue length does an incoming req see (Count)
system.mem_ctrl.rdQLenPdf::4                        0                       # What read queue length does an incoming req see (Count)
system.mem_ctrl.rdQLenPdf::5                        0                       # What read queue length does an incoming req see (Count)
system.mem_ctrl.rdQLenPdf::6                        0                       # What read queue length does an incoming req see (Count)
system.mem_ctrl.rdQLenPdf::7                        0                       # What read queue length does an incoming req see (Count)
system.mem_ctrl.rdQLenPdf::8                        0                       # What read queue length does an incoming req see (Count)
system.mem_ctrl.rdQLenPdf::9                        0                       # What read queue length does an incoming req see (Count)
system.mem_ctrl.rdQLenPdf::10                       0                       # What read queue length does an incoming req see (Count)
system.mem_ctrl.rdQLenPdf::11                       0                       # What read queue length does an incoming req see (Count)
system.mem_ctrl.rdQLenPdf::12                       0                       # What read queue length does an incoming req see (Count)
system.mem_ctrl.rdQLenPdf::13                       0                       # What read queue length does an incoming req see (Count)
system.mem_ctrl.rdQLenPdf::14                       0                       # What read queue length does an incoming req see (Count)
system.mem_ctrl.rdQLenPdf::15                       0                       # What read queue length does an incoming req see (Count)
system.mem_ctrl.rdQLenPdf::16                       0                       # What read queue length does an incoming req see (Count)
system.mem_ctrl.rdQLenPdf::17                       0                       # What read queue length does an incoming req see (Count)
system.mem_ctrl.rdQLenPdf::18                       0                       # What read queue length does an incoming req see (Count)
system.mem_ctrl.rdQLenPdf::19                       0                       # What read queue length does an incoming req see (Count)
system.mem_ctrl.rdQLenPdf::20                       0                       # What read queue length does an incoming req see (Count)
system.mem_ctrl.rdQLenPdf::21                       0                       # What read queue length does an incoming req see (Count)
system.mem_ctrl.rdQLenPdf::22                       0                       # What read queue length does an incoming req see (Count)
system.mem_ctrl.rdQLenPdf::23                       0                       # What read queue length does an incoming req see (Count)
system.mem_ctrl.rdQLenPdf::24                       0                       # What read queue length does an incoming req see (Count)
system.mem_ctrl.rdQLenPdf::25                       0                       # What read queue length does an incoming req see (Count)
system.mem_ctrl.rdQLenPdf::26                       0                       # What read queue length does an incoming req see (Count)
system.mem_ctrl.rdQLenPdf::27                       0                       # What read queue length does an incoming req see (Count)
system.mem_ctrl.rdQLenPdf::28                       0                       # What read queue length does an incoming req see (Count)
system.mem_ctrl.rdQLenPdf::29                       0                       # What read queue length does an incoming req see (Count)
system.mem_ctrl.rdQLenPdf::30                       0                       # What read queue length does an incoming req see (Count)
system.mem_ctrl.rdQLenPdf::31                       0                       # What read queue length does an incoming req see (Count)
system.mem_ctrl.wrQLenPdf::0                        1                       # What write queue length does an incoming req see (Count)
system.mem_ctrl.wrQLenPdf::1                        1                       # What write queue length does an incoming req see (Count)
system.mem_ctrl.wrQLenPdf::2                        1                       # What write queue length does an incoming req see (Count)
system.mem_ctrl.wrQLenPdf::3                        1                       # What write queue length does an incoming req see (Count)
system.mem_ctrl.wrQLenPdf::4                        1                       # What write queue length does an incoming req see (Count)
system.mem_ctrl.wrQLenPdf::5                        1                       # What write queue length does an incoming req see (Count)
system.mem_ctrl.wrQLenPdf::6                        1                       # What write queue length does an incoming req see (Count)
system.mem_ctrl.wrQLenPdf::7                        1                       # What write queue length does an incoming req see (Count)
system.mem_ctrl.wrQLenPdf::8                        1                       # What write queue length does an incoming req see (Count)
system.mem_ctrl.wrQLenPdf::9                        1                       # What write queue length does an incoming req see (Count)
system.mem_ctrl.wrQLenPdf::10                       1                       # What write queue length does an incoming req see (Count)
system.mem_ctrl.wrQLenPdf::11                       1                       # What write queue length does an incoming req see (Count)
system.mem_ctrl.wrQLenPdf::12                       1                       # What write queue length does an incoming req see (Count)
system.mem_ctrl.wrQLenPdf::13                       1                       # What write queue length does an incoming req see (Count)
system.mem_ctrl.wrQLenPdf::14                       1                       # What write queue length does an incoming req see (Count)
system.mem_ctrl.wrQLenPdf::15                     818                       # What write queue length does an incoming req see (Count)
system.mem_ctrl.wrQLenPdf::16                     845                       # What write queue length does an incoming req see (Count)
system.mem_ctrl.wrQLenPdf::17                     860                       # What write queue length does an incoming req see (Count)
system.mem_ctrl.wrQLenPdf::18                     861                       # What write queue length does an incoming req see (Count)
system.mem_ctrl.wrQLenPdf::19                     861                       # What write queue length does an incoming req see (Count)
[...]
system.mem_ctrl.dram.bwInstRead::total      116571520                       # Instruction read bandwidth from this memory ((Byte/Second))
system.mem_ctrl.dram.bwWrite::writebacks     16065640                       # Write bandwidth from this memory ((Byte/Second))
system.mem_ctrl.dram.bwWrite::total          16065640                       # Write bandwidth from this memory ((Byte/Second))
system.mem_ctrl.dram.bwTotal::writebacks     16065640                       # Total bandwidth to/from this memory ((Byte/Second))
system.mem_ctrl.dram.bwTotal::cpu.inst      116571520                       # Total bandwidth to/from this memory ((Byte/Second))
system.mem_ctrl.dram.bwTotal::cpu.data       57600420                       # Total bandwidth to/from this memory ((Byte/Second))
system.mem_ctrl.dram.bwTotal::total         190237580                       # Total bandwidth to/from this memory ((Byte/Second))
system.mem_ctrl.dram.readBursts                  5233                       # Number of DRAM read bursts (Count)
system.mem_ctrl.dram.writeBursts                  414                       # Number of DRAM write bursts (Count)
system.mem_ctrl.dram.perBankRdBursts::0           325                       # Per bank write bursts (Count)
system.mem_ctrl.dram.perBankRdBursts::1           272                       # Per bank write bursts (Count)
system.mem_ctrl.dram.perBankRdBursts::2           622                       # Per bank write bursts (Count)
system.mem_ctrl.dram.perBankRdBursts::3           390                       # Per bank write bursts (Count)
system.mem_ctrl.dram.perBankRdBursts::4           725                       # Per bank write bursts (Count)
system.mem_ctrl.dram.perBankRdBursts::5           455                       # Per bank write bursts (Count)
system.mem_ctrl.dram.perBankRdBursts::6           397                       # Per bank write bursts (Count)
system.mem_ctrl.dram.perBankRdBursts::7           159                       # Per bank write bursts (Count)
system.mem_ctrl.dram.perBankRdBursts::8           313                       # Per bank write bursts (Count)
system.mem_ctrl.dram.perBankRdBursts::9           229                       # Per bank write bursts (Count)
system.mem_ctrl.dram.perBankRdBursts::10           72                       # Per bank write bursts (Count)
system.mem_ctrl.dram.perBankRdBursts::11          170                       # Per bank write bursts (Count)
system.mem_ctrl.dram.perBankRdBursts::12          394                       # Per bank write bursts (Count)
system.mem_ctrl.dram.perBankRdBursts::13          347                       # Per bank write bursts (Count)
system.mem_ctrl.dram.perBankRdBursts::14          215                       # Per bank write bursts (Count)
system.mem_ctrl.dram.perBankRdBursts::15          148                       # Per bank write bursts (Count)
system.mem_ctrl.dram.perBankWrBursts::0            56                       # Per bank write bursts (Count)
system.mem_ctrl.dram.perBankWrBursts::1            26                       # Per bank write bursts (Count)
system.mem_ctrl.dram.perBankWrBursts::2             1                       # Per bank write bursts (Count)
system.mem_ctrl.dram.perBankWrBursts::3            16                       # Per bank write bursts (Count)
system.mem_ctrl.dram.perBankWrBursts::4            11                       # Per bank write bursts (Count)
system.mem_ctrl.dram.perBankWrBursts::5             1                       # Per bank write bursts (Count)
system.mem_ctrl.dram.perBankWrBursts::6             0                       # Per bank write bursts (Count)
system.mem_ctrl.dram.perBankWrBursts::7            13                       # Per bank write bursts (Count)
system.mem_ctrl.dram.perBankWrBursts::8             6                       # Per bank write bursts (Count)
system.mem_ctrl.dram.perBankWrBursts::9             7                       # Per bank write bursts (Count)
system.mem_ctrl.dram.perBankWrBursts::10            9                       # Per bank write bursts (Count)
system.mem_ctrl.dram.perBankWrBursts::11           11                       # Per bank write bursts (Count)
system.mem_ctrl.dram.perBankWrBursts::12          212                       # Per bank write bursts (Count)
system.mem_ctrl.dram.perBankWrBursts::13           33                       # Per bank write bursts (Count)
system.mem_ctrl.dram.perBankWrBursts::14           10                       # Per bank write bursts (Count)
system.mem_ctrl.dram.perBankWrBursts::15            2                       # Per bank write bursts (Count)
system.mem_ctrl.dram.totQLat                 58226541                       # Total ticks spent queuing (Tick)
system.mem_ctrl.dram.totBusLat               26165000                       # Total ticks spent in databus transfers (Tick)
system.mem_ctrl.dram.totMemAccLat           156345291                       # Total ticks spent from burst creation until serviced by the DRAM (Tick)
system.mem_ctrl.dram.avgQLat                 11126.80                       # Average queueing delay per DRAM burst ((Tick/Count))
system.mem_ctrl.dram.avgBusLat                5000.00                       # Average bus latency per DRAM burst ((Tick/Count))
system.mem_ctrl.dram.avgMemAccLat            29876.80                       # Average memory access latency per DRAM burst ((Tick/Count))
system.mem_ctrl.dram.readRowHits                 3317                       # Number of row buffer hits during reads (Count)
system.mem_ctrl.dram.writeRowHits                 325                       # Number of row buffer hits during writes (Count)
system.mem_ctrl.dram.readRowHitRate             63.39                       # Row buffer hit rate for reads (Ratio)
system.mem_ctrl.dram.writeRowHitRate            78.50                       # Row buffer hit rate for writes (Ratio)
system.mem_ctrl.dram.bytesPerActivate::samples         2004                       # Bytes accessed per row activation (Byte)
system.mem_ctrl.dram.bytesPerActivate::mean   180.247505                       # Bytes accessed per row activation (Byte)
system.mem_ctrl.dram.bytesPerActivate::gmean   130.002076                       # Bytes accessed per row activation (Byte)
system.mem_ctrl.dram.bytesPerActivate::stdev   177.991464                       # Bytes accessed per row activation (Byte)
system.mem_ctrl.dram.bytesPerActivate::0-127          876     43.71%     43.71% # Bytes accessed per row activation (Byte)
system.mem_ctrl.dram.bytesPerActivate::128-255          666     33.23%     76.95% # Bytes accessed per row activation (Byte)
system.mem_ctrl.dram.bytesPerActivate::256-383          226     11.28%     88.22% # Bytes accessed per row activation (Byte)
system.mem_ctrl.dram.bytesPerActivate::384-511           89      4.44%     92.66% # Bytes accessed per row activation (Byte)
system.mem_ctrl.dram.bytesPerActivate::512-639           54      2.69%     95.36% # Bytes accessed per row activation (Byte)
system.mem_ctrl.dram.bytesPerActivate::640-767           43      2.15%     97.50% # Bytes accessed per row activation (Byte)
system.mem_ctrl.dram.bytesPerActivate::768-895           22      1.10%     98.60% # Bytes accessed per row activation (Byte)
system.mem_ctrl.dram.bytesPerActivate::896-1023           10      0.50%     99.10% # Bytes accessed per row activation (Byte)
system.mem_ctrl.dram.bytesPerActivate::1024-1151           18      0.90%    100.00% # Bytes accessed per row activation (Byte)
system.mem_ctrl.dram.bytesPerActivate::total         2004                       # Bytes accessed per row activation (Byte)
system.mem_ctrl.dram.dramBytesRead             334912                       # Total bytes read (Byte)
system.mem_ctrl.dram.dramBytesWritten           26496                       # Total bytes written (Byte)
system.mem_ctrl.dram.avgRdBW               166.808521                       # Average DRAM read bandwidth in MiBytes/s ((Byte/Second))
system.mem_ctrl.dram.avgWrBW                13.196776                       # Average DRAM write bandwidth in MiBytes/s ((Byte/Second))
system.mem_ctrl.dram.peakBW                  12800.00                       # Theoretical peak bandwidth in MiByte/s ((Byte/Second))
system.mem_ctrl.dram.busUtil                     1.41                       # Data bus utilization in percentage (Ratio)
system.mem_ctrl.dram.busUtilRead                 1.30                       # Data bus utilization in percentage for reads (Ratio)
system.mem_ctrl.dram.busUtilWrite                0.10                       # Data bus utilization in percentage for writes (Ratio)
system.mem_ctrl.dram.pageHitRate                64.49                       # Row buffer hit rate, read and write combined (Ratio)
system.mem_ctrl.dram.power_state.pwrStateResidencyTicks::UNDEFINED   2007763138                       # Cumulative time (in ticks) in various power states (Tick)
system.mem_ctrl.dram.rank0.actEnergy          8075340                       # Energy for activate commands per rank (pJ) (Joule)
system.mem_ctrl.dram.rank0.preEnergy          4292145                       # Energy for precharge commands per rank (pJ) (Joule)
system.mem_ctrl.dram.rank0.readEnergy        23883300                       # Energy for read commands per rank (pJ) (Joule)
system.mem_ctrl.dram.rank0.writeEnergy         647280                       # Energy for write commands per rank (pJ) (Joule)
system.mem_ctrl.dram.rank0.refreshEnergy 158577120.000000                       # Energy for refresh commands per rank (pJ) (Joule)
system.mem_ctrl.dram.rank0.actBackEnergy    776614170                       # Energy for active background per rank (pJ) (Joule)
system.mem_ctrl.dram.rank0.preBackEnergy    116990400                       # Energy for precharge background per rank (pJ) (Joule)
system.mem_ctrl.dram.rank0.actPowerDownEnergy            0                       # Energy for active power-down per rank (pJ) (Joule)
system.mem_ctrl.dram.rank0.prePowerDownEnergy            0                       # Energy for precharge power-down per rank (pJ) (Joule)
system.mem_ctrl.dram.rank0.selfRefreshEnergy            0                       # Energy for self refresh per rank (pJ) (Joule)
system.mem_ctrl.dram.rank0.totalEnergy     1089079755                       # Total energy per rank (pJ) (Joule)
system.mem_ctrl.dram.rank0.averagePower    542.434381                       # Core power per rank (mW) (Watt)
system.mem_ctrl.dram.rank0.totalIdleTime            0                       # Total Idle time Per DRAM Rank (Tick)
system.mem_ctrl.dram.rank0.pwrStateTime::IDLE    297121925                       # Time in different power states (Tick)
system.mem_ctrl.dram.rank0.pwrStateTime::REF     67080000                       # Time in different power states (Tick)
system.mem_ctrl.dram.rank0.pwrStateTime::SREF            0                       # Time in different power states (Tick)
system.mem_ctrl.dram.rank0.pwrStateTime::PRE_PDN            0                       # Time in different power states (Tick)
system.mem_ctrl.dram.rank0.pwrStateTime::ACT   1643561213                       # Time in different power states (Tick)
system.mem_ctrl.dram.rank0.pwrStateTime::ACT_PDN            0                       # Time in different power states (Tick)
system.mem_ctrl.dram.rank1.actEnergy          6240360                       # Energy for activate commands per rank (pJ) (Joule)
system.mem_ctrl.dram.rank1.preEnergy          3313035                       # Energy for precharge commands per rank (pJ) (Joule)
system.mem_ctrl.dram.rank1.readEnergy        13480320                       # Energy for read commands per rank (pJ) (Joule)
system.mem_ctrl.dram.rank1.writeEnergy        1513800                       # Energy for write commands per rank (pJ) (Joule)
system.mem_ctrl.dram.rank1.refreshEnergy 158577120.000000                       # Energy for refresh commands per rank (pJ) (Joule)
system.mem_ctrl.dram.rank1.actBackEnergy    664156590                       # Energy for active background per rank (pJ) (Joule)
system.mem_ctrl.dram.rank1.preBackEnergy    211691520                       # Energy for precharge background per rank (pJ) (Joule)
system.mem_ctrl.dram.rank1.actPowerDownEnergy            0                       # Energy for active power-down per rank (pJ) (Joule)
system.mem_ctrl.dram.rank1.prePowerDownEnergy            0                       # Energy for precharge power-down per rank (pJ) (Joule)
system.mem_ctrl.dram.rank1.selfRefreshEnergy            0                       # Energy for self refresh per rank (pJ) (Joule)
system.mem_ctrl.dram.rank1.totalEnergy     1058972745                       # Total energy per rank (pJ) (Joule)
system.mem_ctrl.dram.rank1.averagePower    527.439081                       # Core power per rank (mW) (Watt)
system.mem_ctrl.dram.rank1.totalIdleTime            0                       # Total Idle time Per DRAM Rank (Tick)
system.mem_ctrl.dram.rank1.pwrStateTime::IDLE    544423089                       # Time in different power states (Tick)
system.mem_ctrl.dram.rank1.pwrStateTime::REF     67080000                       # Time in different power states (Tick)
system.mem_ctrl.dram.rank1.pwrStateTime::SREF            0                       # Time in different power states (Tick)
system.mem_ctrl.dram.rank1.pwrStateTime::PRE_PDN            0                       # Time in different power states (Tick)
system.mem_ctrl.dram.rank1.pwrStateTime::ACT   1396260049                       # Time in different power states (Tick)
system.mem_ctrl.dram.rank1.pwrStateTime::ACT_PDN            0                       # Time in different power states (Tick)
system.mem_ctrl.power_state.pwrStateResidencyTicks::UNDEFINED   2007763138                       # Cumulative time (in ticks) in various power states (Tick)
system.membus.transDist::ReadResp                5271                       # Transaction distribution (Count)
system.membus.transDist::WritebackDirty           504                       # Transaction distribution (Count)
system.membus.transDist::CleanEvict              4960                       # Transaction distribution (Count)
system.membus.transDist::ReadExReq                193                       # Transaction distribution (Count)
system.membus.transDist::ReadExResp               193                       # Transaction distribution (Count)
system.membus.transDist::ReadSharedReq           5271                       # Transaction distribution (Count)
system.membus.pktCount_system.cpu.l1d.mem_side_port::system.mem_ctrl.port         5421                       # Packet count per connected requestor and responder (Count)
system.membus.pktCount_system.cpu.l1d.mem_side_port::total         5421                       # Packet count per connected requestor and responder (Count)
system.membus.pktCount_system.cpu.l1i.mem_side_port::system.mem_ctrl.port        10971                       # Packet count per connected requestor and responder (Count)
system.membus.pktCount_system.cpu.l1i.mem_side_port::total        10971                       # Packet count per connected requestor and responder (Count)
system.membus.pktCount::total                   16392                       # Packet count per connected requestor and responder (Count)
system.membus.pktSize_system.cpu.l1d.mem_side_port::system.mem_ctrl.port       147904                       # Cumulative packet size per connected requestor and responder (Byte)
system.membus.pktSize_system.cpu.l1d.mem_side_port::total       147904                       # Cumulative packet size per connected requestor and responder (Byte)
system.membus.pktSize_system.cpu.l1i.mem_side_port::system.mem_ctrl.port       234048                       # Cumulative packet size per connected requestor and responder (Byte)
system.membus.pktSize_system.cpu.l1i.mem_side_port::total       234048                       # Cumulative packet size per connected requestor and responder (Byte)
system.membus.pktSize::total                   381952                       # Cumulative packet size per connected requestor and responder (Byte)
system.membus.snoops                                0                       # Total snoops (Count)
system.membus.snoopTraffic                          0                       # Total snoop traffic (Byte)
system.membus.snoopFanout::samples               5464                       # Request fanout histogram (Count)
system.membus.snoopFanout::mean              0.000732                       # Request fanout histogram (Count)
system.membus.snoopFanout::stdev             0.027049                       # Request fanout histogram (Count)
system.membus.snoopFanout::underflows               0      0.00%      0.00% # Request fanout histogram (Count)
system.membus.snoopFanout::0                     5460     99.93%     99.93% # Request fanout histogram (Count)
system.membus.snoopFanout::1                        4      0.07%    100.00% # Request fanout histogram (Count)
system.membus.snoopFanout::2                        0      0.00%    100.00% # Request fanout histogram (Count)
system.membus.snoopFanout::overflows                0      0.00%    100.00% # Request fanout histogram (Count)
system.membus.snoopFanout::min_value                0                       # Request fanout histogram (Count)
system.membus.snoopFanout::max_value                1                       # Request fanout histogram (Count)
system.membus.snoopFanout::total                 5464                       # Request fanout histogram (Count)
system.membus.power_state.pwrStateResidencyTicks::UNDEFINED   2007763138                       # Cumulative time (in ticks) in various power states (Tick)
system.membus.reqLayer2.occupancy           172582352                       # Layer occupancy (ticks) (Tick)
system.membus.reqLayer2.utilization               0.1                       # Layer utilization (Ratio)
system.membus.respLayer2.occupancy          123033379                       # Layer occupancy (ticks) (Tick)
system.membus.respLayer2.utilization              0.1                       # Layer utilization (Ratio)
system.membus.respLayer3.occupancy          248692084                       # Layer occupancy (ticks) (Tick)
system.membus.respLayer3.utilization              0.1                       # Layer utilization (Ratio)
system.membus.snoop_filter.totRequests          10928                       # Total number of requests made to the snoop filter. (Count)
system.membus.snoop_filter.hitSingleRequests         5464                       # Number of requests hitting in the snoop filter with a single holder of the requested data. (Count)
system.membus.snoop_filter.hitMultiRequests            4                       # Number of requests hitting in the snoop filter with multiple (>1) holders of the requested data. (Count)
system.membus.snoop_filter.totSnoops                0                       # Total number of snoops made to the snoop filter. (Count)
system.membus.snoop_filter.hitSingleSnoops            0                       # Number of snoops hitting in the snoop filter with a single holder of the requested data. (Count)
system.membus.snoop_filter.hitMultiSnoops            0                       # Number of snoops hitting in the snoop filter with multiple (>1) holders of the requested data. (Count)
system.workload.inst.arm                            0                       # number of arm instructions executed (Count)
system.workload.inst.quiesce                        0                       # number of quiesce instructions executed (Count)
system.cpu.idleCycles                           34541                       # Total number of cycles that the object has spent stopped (Unspecified)
system.cpu.tickCycles                          116045                       # Number of cycles that the object actually ticked (Unspecified)

---------- End Simulation Statistics   ----------
