
---------- Begin Simulation Statistics ----------
simSeconds                                   1.020704                       # Number of seconds simulated (Second)
simTicks                                 1020703655104                       # Number of ticks simulated (Tick)
finalTick                                1020703655104                       # Number of ticks from beginning of simulation (restored from checkpoints and never reset) (Tick)
simFreq                                  1000000000000                       # The number of ticks per simulated second ((Tick/Second))
hostSeconds                                   1510.31                       # Real time elapsed on the host (Second)
hostTickRate                                675824703                       # The number of ticks simulated per host second (ticks/s) ((Tick/Second))
hostMemory                                    8645916                       # Number of bytes of host memory used (Byte)
simInsts                                    127357737                       # Number of instructions simulated (Count)
simOps                                      257281604                       # Number of ops (including micro ops) simulated (Count)
hostInstRate                                    84326                       # Simulator instruction rate (inst/s) ((Count/Second))
hostOpRate                                     170350                       # Simulator op (including micro ops) rate (op/s) ((Count/Second))
system.clk_domain.clock                         13333                       # Clock period in ticks (Tick)
system.clk_domain.voltage_domain.voltage            1                       # Voltage in Volts (Volt)
system.cpu.numCycles                         76554689                       # Number of cpu cycles simulated (Cycle)
system.cpu.cpi                               0.601100                       # CPI: cycles per instruction (core level) ((Cycle/Count))
system.cpu.ipc                               1.663618                       # IPC: instructions per cycle (core level) ((Count/Cycle))
system.cpu.numWorkItemsStarted                      0                       # Number of work items this cpu started (Count)
system.cpu.numWorkItemsCompleted                    0                       # Number of work items this cpu completed (Count)
system.cpu.instsAdded                       292024128                       # Number of instructions added to the IQ (excludes non-spec) (Count)
system.cpu.nonSpecInstsAdded                     2426                       # Number of non-speculative instructions added to the IQ (Count)
system.cpu.instsIssued                      290369962                       # Number of instructions issued (Count)
system.cpu.squashedInstsIssued                   6762                       # Number of squashed instructions issued (Count)
system.cpu.squashedInstsExamined             34744869                       # Number of squashed instructions iterated over during squash; mainly for profiling (Count)
system.cpu.squashedOperandsExamined           8734007                       # Number of squashed operands that are examined and possibly removed from graph (Count)
system.cpu.squashedNonSpecRemoved                 236                       # Number of squashed non-spec instructions that were removed (Count)
system.cpu.numIssuedDist::samples            76552562                       # Number of insts issued each cycle (Count)
system.cpu.numIssuedDist::mean               3.793080                       # Number of insts issued each cycle (Count)
system.cpu.numIssuedDist::stdev              2.397202                       # Number of insts issued each cycle (Count)
system.cpu.numIssuedDist::underflows                0      0.00%      0.00% # Number of insts issued each cycle (Count)
system.cpu.numIssuedDist::0                   8100524     10.58%     10.58% # Number of insts issued each cycle (Count)
system.cpu.numIssuedDist::1                   9361815     12.23%     22.81% # Number of insts issued each cycle (Count)
system.cpu.numIssuedDist::2                   8473167     11.07%     33.88% # Number of insts issued each cycle (Count)
system.cpu.numIssuedDist::3                   5754398      7.52%     41.40% # Number of insts issued each cycle (Count)
system.cpu.numIssuedDist::4                  13706628     17.90%     59.30% # Number of insts issued each cycle (Count)
system.cpu.numIssuedDist::5                  13090043     17.10%     76.40% # Number of insts issued each cycle (Count)
system.cpu.numIssuedDist::6                   6788601      8.87%     85.27% # Number of insts issued each cycle (Count)
system.cpu.numIssuedDist::7                   4428802      5.79%     91.05% # Number of insts issued each cycle (Count)
system.cpu.numIssuedDist::8                   6848584      8.95%    100.00% # Number of insts issued each cycle (Count)
system.cpu.numIssuedDist::overflows                 0      0.00%    100.00% # Number of insts issued each cycle (Count)
system.cpu.numIssuedDist::min_value                 0                       # Number of insts issued each cycle (Count)
system.cpu.numIssuedDist::max_value                 8                       # Number of insts issued each cycle (Count)
system.cpu.numIssuedDist::total              76552562                       # Number of insts issued each cycle (Count)
system.cpu.statFuBusy::No_OpClass                   0      0.00%      0.00% # attempts to use FU when none available (Count)
system.cpu.statFuBusy::IntAlu                 2247416     73.84%     73.84% # attempts to use FU when none available (Count)
system.cpu.statFuBusy::IntMult                      0      0.00%     73.84% # attempts to use FU when none available (Count)
system.cpu.statFuBusy::IntDiv                       0      0.00%     73.84% # attempts to use FU when none available (Count)
system.cpu.statFuBusy::FloatAdd                     0      0.00%     73.84% # attempts to use FU when none available (Count)
system.cpu.statFuBusy::FloatCmp                     0      0.00%     73.84% # attempts to use FU when none available (Count)
system.cpu.statFuBusy::FloatCvt                     0      0.00%     73.84% # attempts to use FU when none available (Count)
system.cpu.statFuBusy::FloatMult                    0      0.00%     73.84% # attempts to use FU when none available (Count)
system.cpu.statFuBusy::FloatMultAcc                 0      0.00%     73.84% # attempts to use FU when none available (Count)
system.cpu.statFuBusy::FloatDiv                     0      0.00%     73.84% # attempts to use FU when none available (Count)
system.cpu.statFuBusy::FloatMisc                    0      0.00%     73.84% # attempts to use FU when none available (Count)
system.cpu.statFuBusy::FloatSqrt                    0      0.00%     73.84% # attempts to use FU when none available (Count)
system.cpu.statFuBusy::SimdAdd                      2      0.00%     73.84% # attempts to use FU when none available (Count)
system.cpu.statFuBusy::SimdAddAcc                   0      0.00%     73.84% # attempts to use FU when none available (Count)
system.cpu.statFuBusy::SimdAlu                     97      0.00%     73.84% # attempts to use FU when none available (Count)
system.cpu.statFuBusy::SimdCmp                      1      0.00%     73.84% # attempts to use FU when none available (Count)
system.cpu.statFuBusy::SimdCvt                    200      0.01%     73.84% # attempts to use FU when none available (Count)
system.cpu.statFuBusy::SimdMisc                    20      0.00%     73.85% # attempts to use FU when none available (Count)
system.cpu.statFuBusy::SimdMult                     0      0.00%     73.85% # attempts to use FU when none available (Count)
system.cpu.statFuBusy::SimdMultAcc                  0      0.00%     73.85% # attempts to use FU when none available (Count)
system.cpu.statFuBusy::SimdMatMultAcc               0      0.00%     73.85% # attempts to use FU when none available (Count)
system.cpu.statFuBusy::SimdShift                   30      0.00%     73.85% # attempts to use FU when none available (Count)
system.cpu.statFuBusy::SimdShiftAcc                 0      0.00%     73.85% # attempts to use FU when none available (Count)
system.cpu.statFuBusy::SimdDiv                      0      0.00%     73.85% # attempts to use FU when none available (Count)
system.cpu.statFuBusy::SimdSqrt                     0      0.00%     73.85% # attempts to use FU when none available (Count)
system.cpu.statFuBusy::SimdFloatAdd                 0      0.00%     73.85% # attempts to use FU when none available (Count)
system.cpu.statFuBusy::SimdFloatAlu                 0      0.00%     73.85% # attempts to use FU when none available (Count)
system.cpu.statFuBusy::SimdFloatCmp                 0      0.00%     73.85% # attempts to use FU when none available (Count)
system.cpu.statFuBusy::SimdFloatCvt                 0      0.00%     73.85% # attempts to use FU when none available (Count)
system.cpu.statFuBusy::SimdFloatDiv                 0      0.00%     73.85% # attempts to use FU when none available (Count)
system.cpu.statFuBusy::SimdFloatMisc                0      0.00%     73.85% # attempts to use FU when none available (Count)
system.cpu.statFuBusy::SimdFloatMult                0      0.00%     73.85% # attempts to use FU when none available (Count)
system.cpu.statFuBusy::SimdFloatMultAcc             0      0.00%     73.85% # attempts to use FU when none available (Count)
system.cpu.statFuBusy::SimdFloatMatMultAcc            0      0.00%     73.85% # attempts to use FU when none available (Count)
system.cpu.statFuBusy::SimdFloatSqrt                0      0.00%     73.85% # attempts to use FU when none available (Count)
system.cpu.statFuBusy::SimdReduceAdd                0      0.00%     73.85% # attempts to use FU when none available (Count)
system.cpu.statFuBusy::SimdReduceAlu                0      0.00%     73.85% # attempts to use FU when none available (Count)
system.cpu.statFuBusy::SimdReduceCmp                0      0.00%     73.85% # attempts to use FU when none available (Count)
system.cpu.statFuBusy::SimdFloatReduceAdd            0      0.00%     73.85% # attempts to use FU when none available (Count)
system.cpu.statFuBusy::SimdFloatReduceCmp            0      0.00%     73.85% # attempts to use FU when none available (Count)
system.cpu.statFuBusy::SimdAes                      0      0.00%     73.85% # attempts to use FU when none available (Count)
system.cpu.statFuBusy::SimdAesMix                   0      0.00%     73.85% # attempts to use FU when none available (Count)
system.cpu.statFuBusy::SimdSha1Hash                 0      0.00%     73.85% # attempts to use FU when none available (Count)
system.cpu.statFuBusy::SimdSha1Hash2                0      0.00%     73.85% # attempts to use FU when none available (Count)
system.cpu.statFuBusy::SimdSha256Hash               0      0.00%     73.85% # attempts to use FU when none available (Count)
system.cpu.statFuBusy::SimdSha256Hash2              0      0.00%     73.85% # attempts to use FU when none available (Count)
system.cpu.statFuBusy::SimdShaSigma2                0      0.00%     73.85% # attempts to use FU when none available (Count)
system.cpu.statFuBusy::SimdShaSigma3                0      0.00%     73.85% # attempts to use FU when none available (Count)
system.cpu.statFuBusy::SimdPredAlu                  0      0.00%     73.85% # attempts to use FU when none available (Count)
system.cpu.statFuBusy::Matrix                       0      0.00%     73.85% # attempts to use FU when none available (Count)
system.cpu.statFuBusy::MatrixMov                    0      0.00%     73.85% # attempts to use FU when none available (Count)
system.cpu.statFuBusy::MatrixOP                     0      0.00%     73.85% # attempts to use FU when none available (Count)
system.cpu.statFuBusy::MemRead                 478722     15.73%     89.57% # attempts to use FU when none available (Count)
system.cpu.statFuBusy::MemWrite                316329     10.39%     99.97% # attempts to use FU when none available (Count)
system.cpu.statFuBusy::FloatMemRead               581      0.02%     99.99% # attempts to use FU when none available (Count)
system.cpu.statFuBusy::FloatMemWrite              432      0.01%    100.00% # attempts to use FU when none available (Count)
system.cpu.statFuBusy::IprAccess                    0      0.00%    100.00% # attempts to use FU when none available (Count)
system.cpu.statFuBusy::InstPrefetch                 0      0.00%    100.00% # attempts to use FU when none available (Count)
system.cpu.statFuBusy::SimdUnitStrideLoad            0      0.00%    100.00% # attempts to use FU when none available (Count)
system.cpu.statFuBusy::SimdUnitStrideStore            0      0.00%    100.00% # attempts to use FU when none available (Count)
system.cpu.statFuBusy::SimdUnitStrideMaskLoad            0      0.00%    100.00% # attempts to use FU when none available (Count)
system.cpu.statFuBusy::SimdUnitStrideMaskStore            0      0.00%    100.00% # attempts to use FU when none available (Count)
system.cpu.statFuBusy::SimdStridedLoad              0      0.00%    100.00% # attempts to use FU when none available (Count)
system.cpu.statFuBusy::SimdStridedStore             0      0.00%    100.00% # attempts to use FU when none available (Count)
system.cpu.statFuBusy::SimdIndexedLoad              0      0.00%    100.00% # attempts to use FU when none available (Count)
system.cpu.statFuBusy::SimdIndexedStore             0      0.00%    100.00% # attempts to use FU when none available (Count)
system.cpu.statFuBusy::SimdWholeRegisterLoad            0      0.00%    100.00% # attempts to use FU when none available (Count)
system.cpu.statFuBusy::SimdWholeRegisterStore            0      0.00%    100.00% # attempts to use FU when none available (Count)
system.cpu.statFuBusy::SimdUnitStrideFaultOnlyFirstLoad            0      0.00%    100.00% # attempts to use FU when none available (Count)
system.cpu.statFuBusy::SimdUnitStrideSegmentedLoad            0      0.00%    100.00% # attempts to use FU when none available (Count)
system.cpu.statFuBusy::SimdUnitStrideSegmentedStore            0      0.00%    100.00% # attempts to use FU when none available (Count)
system.cpu.statFuBusy::SimdExt                      0      0.00%    100.00% # attempts to use FU when none available (Count)
system.cpu.statFuBusy::SimdFloatExt                 0      0.00%    100.00% # attempts to use FU when none available (Count)
system.cpu.statFuBusy::SimdConfig                   0      0.00%    100.00% # attempts to use FU when none available (Count)
system.cpu.statIssuedInstType_0::No_OpClass      2491951      0.86%      0.86% # Number of instructions issued per FU type, per thread (Count)
system.cpu.statIssuedInstType_0::IntAlu     203512902     70.09%     70.95% # Number of instructions issued per FU type, per thread (Count)
system.cpu.statIssuedInstType_0::IntMult       616394      0.21%     71.16% # Number of instructions issued per FU type, per thread (Count)
system.cpu.statIssuedInstType_0::IntDiv         42411      0.01%     71.17% # Number of instructions issued per FU type, per thread (Count)
system.cpu.statIssuedInstType_0::FloatAdd       933354      0.32%     71.49% # Number of instructions issued per FU type, per thread (Count)
system.cpu.statIssuedInstType_0::FloatCmp            0      0.00%     71.49% # Number of instructions issued per FU type, per thread (Count)
system.cpu.statIssuedInstType_0::FloatCvt         1232      0.00%     71.49% # Number of instructions issued per FU type, per thread (Count)
system.cpu.statIssuedInstType_0::FloatMult            0      0.00%     71.49% # Number of instructions issued per FU type, per thread (Count)
system.cpu.statIssuedInstType_0::FloatMultAcc            0      0.00%     71.49% # Number of instructions issued per FU type, per thread (Count)
system.cpu.statIssuedInstType_0::FloatDiv            0      0.00%     71.49% # Number of instructions issued per FU type, per thread (Count)
system.cpu.statIssuedInstType_0::FloatMisc            0      0.00%     71.49% # Number of instructions issued per FU type, per thread (Count)
system.cpu.statIssuedInstType_0::FloatSqrt            0      0.00%     71.49% # Number of instructions issued per FU type, per thread (Count)
system.cpu.statIssuedInstType_0::SimdAdd         7301      0.00%     71.50% # Number of instructions issued per FU type, per thread (Count)
system.cpu.statIssuedInstType_0::SimdAddAcc            0      0.00%     71.50% # Number of instructions issued per FU type, per thread (Count)
system.cpu.statIssuedInstType_0::SimdAlu       632591      0.22%     71.71% # Number of instructions issued per FU type, per thread (Count)
system.cpu.statIssuedInstType_0::SimdCmp           11      0.00%     71.71% # Number of instructions issued per FU type, per thread (Count)
system.cpu.statIssuedInstType_0::SimdCvt        15980      0.01%     71.72% # Number of instructions issued per FU type, per thread (Count)
system.cpu.statIssuedInstType_0::SimdMisc      1556621      0.54%     72.26% # Number of instructions issued per FU type, per thread (Count)
system.cpu.statIssuedInstType_0::SimdMult            0      0.00%     72.26% # Number of instructions issued per FU type, per thread (Count)
system.cpu.statIssuedInstType_0::SimdMultAcc            0      0.00%     72.26% # Number of instructions issued per FU type, per thread (Count)
system.cpu.statIssuedInstType_0::SimdMatMultAcc            0      0.00%     72.26% # Number of instructions issued per FU type, per thread (Count)
system.cpu.statIssuedInstType_0::SimdShift         3843      0.00%     72.26% # Number of instructions issued per FU type, per thread (Count)
system.cpu.statIssuedInstType_0::SimdShiftAcc            0      0.00%     72.26% # Number of instructions issued per FU type, per thread (Count)
system.cpu.statIssuedInstType_0::SimdDiv            0      0.00%     72.26% # Number of instructions issued per FU type, per thread (Count)
system.cpu.statIssuedInstType_0::SimdSqrt            0      0.00%     72.26% # Number of instructions issued per FU type, per thread (Count)
system.cpu.statIssuedInstType_0::SimdFloatAdd       307952      0.11%     72.36% # Number of instructions issued per FU type, per thread (Count)
system.cpu.statIssuedInstType_0::SimdFloatAlu            0      0.00%     72.36% # Number of instructions issued per FU type, per thread (Count)
system.cpu.statIssuedInstType_0::SimdFloatCmp            0      0.00%     72.36% # Number of instructions issued per FU type, per thread (Count)
system.cpu.statIssuedInstType_0::SimdFloatCvt       615905      0.21%     72.58% # Number of instructions issued per FU type, per thread (Count)
system.cpu.statIssuedInstType_0::SimdFloatDiv       307952      0.11%     72.68% # Number of instructions issued per FU type, per thread (Count)
system.cpu.statIssuedInstType_0::SimdFloatMisc            0      0.00%     72.68% # Number of instructions issued per FU type, per thread (Count)
system.cpu.statIssuedInstType_0::SimdFloatMult            0      0.00%     72.68% # Number of instructions issued per FU type, per thread (Count)
system.cpu.statIssuedInstType_0::SimdFloatMultAcc            0      0.00%     72.68% # Number of instructions issued per FU type, per thread (Count)
system.cpu.statIssuedInstType_0::SimdFloatMatMultAcc            0      0.00%     72.68% # Number of instructions issued per FU type, per thread (Count)
system.cpu.statIssuedInstType_0::SimdFloatSqrt            0      0.00%     72.68% # Number of instructions issued per FU type, per thread (Count)
system.cpu.statIssuedInstType_0::SimdReduceAdd            0      0.00%     72.68% # Number of instructions issued per FU type, per thread (Count)
system.cpu.statIssuedInstType_0::SimdReduceAlu            0      0.00%     72.68% # Number of instructions issued per FU type, per thread (Count)
system.cpu.statIssuedInstType_0::SimdReduceCmp            0      0.00%     72.68% # Number of instructions issued per FU type, per thread (Count)
system.cpu.statIssuedInstType_0::SimdFloatReduceAdd            0      0.00%     72.68% # Number of instructions issued per FU type, per thread (Count)
system.cpu.statIssuedInstType_0::SimdFloatReduceCmp            0      0.00%     72.68% # Number of instructions issued per FU type, per thread (Count)
system.cpu.statIssuedInstType_0::SimdAes            0      0.00%     72.68% # Number of instructions issued per FU type, per thread (Count)
system.cpu.statIssuedInstType_0::SimdAesMix            0      0.00%     72.68% # Number of instructions issued per FU type, per thread (Count)
system.cpu.statIssuedInstType_0::SimdSha1Hash            0      0.00%     72.68% # Number of instructions issued per FU type, per thread (Count)
system.cpu.statIssuedInstType_0::SimdSha1Hash2            0      0.00%     72.68% # Number of instructions issued per FU type, per thread (Count)
system.cpu.statIssuedInstType_0::SimdSha256Hash            0      0.00%     72.68% # Number of instructions issued per FU type, per thread (Count)
system.cpu.statIssuedInstType_0::SimdSha256Hash2            0      0.00%     72.68% # Number of instructions issued per FU type, per thread (Count)
system.cpu.statIssuedInstType_0::SimdShaSigma2            0      0.00%     72.68% # Number of instructions issued per FU type, per thread (Count)
system.cpu.statIssuedInstType_0::SimdShaSigma3            0      0.00%     72.68% # Number of instructions issued per FU type, per thread (Count)
system.cpu.statIssuedInstType_0::SimdPredAlu            0      0.00%     72.68% # Number of instructions issued per FU type, per thread (Count)
system.cpu.statIssuedInstType_0::Matrix             0      0.00%     72.68% # Number of instructions issued per FU type, per thread (Count)
system.cpu.statIssuedInstType_0::MatrixMov            0      0.00%     72.68% # Number of instructions issued per FU type, per thread (Count)
system.cpu.statIssuedInstType_0::MatrixOP            0      0.00%     72.68% # Number of instructions issued per FU type, per thread (Count)
system.cpu.statIssuedInstType_0::MemRead     51434200     17.71%     90.40% # Number of instructions issued per FU type, per thread (Count)
system.cpu.statIssuedInstType_0::MemWrite     26617092      9.17%     99.56% # Number of instructions issued per FU type, per thread (Count)
system.cpu.statIssuedInstType_0::FloatMemRead      1102258      0.38%     99.94% # Number of instructions issued per FU type, per thread (Count)
system.cpu.statIssuedInstType_0::FloatMemWrite       170012      0.06%    100.00% # Number of instructions issued per FU type, per thread (Count)
system.cpu.statIssuedInstType_0::IprAccess            0      0.00%    100.00% # Number of instructions issued per FU type, per thread (Count)
system.cpu.statIssuedInstType_0::InstPrefetch            0      0.00%    100.00% # Number of instructions issued per FU type, per thread (Count)
system.cpu.statIssuedInstType_0::SimdUnitStrideLoad            0      0.00%    100.00% # Number of instructions issued per FU type, per thread (Count)
system.cpu.statIssuedInstType_0::SimdUnitStrideStore            0      0.00%    100.00% # Number of instructions issued per FU type, per thread (Count)
system.cpu.statIssuedInstType_0::SimdUnitStrideMaskLoad            0      0.00%    100.00% # Number of instructions issued per FU type, per thread (Count)
system.cpu.statIssuedInstType_0::SimdUnitStrideMaskStore            0      0.00%    100.00% # Number of instructions issued per FU type, per thread (Count)
system.cpu.statIssuedInstType_0::SimdStridedLoad            0      0.00%    100.00% # Number of instructions issued per FU type, per thread (Count)
system.cpu.statIssuedInstType_0::SimdStridedStore            0      0.00%    100.00% # Number of instructions issued per FU type, per thread (Count)
system.cpu.statIssuedInstType_0::SimdIndexedLoad            0      0.00%    100.00% # Number of instructions issued per FU type, per thread (Count)
system.cpu.statIssuedInstType_0::SimdIndexedStore            0      0.00%    100.00% # Number of instructions issued per FU type, per thread (Count)
system.cpu.statIssuedInstType_0::SimdWholeRegisterLoad            0      0.00%    100.00% # Number of instructions issued per FU type, per thread (Count)
system.cpu.statIssuedInstType_0::SimdWholeRegisterStore            0      0.00%    100.00% # Number of instructions issued per FU type, per thread (Count)
system.cpu.statIssuedInstType_0::SimdUnitStrideFaultOnlyFirstLoad            0      0.00%    100.00% # Number of instructions issued per FU type, per thread (Count)
system.cpu.statIssuedInstType_0::SimdUnitStrideSegmentedLoad            0      0.00%    100.00% # Number of instructions issued per FU type, per thread (Count)
system.cpu.statIssuedInstType_0::SimdUnitStrideSegmentedStore            0      0.00%    100.00% # Number of instructions issued per FU type, per thread (Count)
system.cpu.statIssuedInstType_0::SimdExt            0      0.00%    100.00% # Number of instructions issued per FU type, per thread (Count)
system.cpu.statIssuedInstType_0::SimdFloatExt            0      0.00%    100.00% # Number of instructions issued per FU type, per thread (Count)
system.cpu.statIssuedInstType_0::SimdConfig            0      0.00%    100.00% # Number of instructions issued per FU type, per thread (Count)
system.cpu.statIssuedInstType_0::total      290369962                       # Number of instructions issued per FU type, per thread (Count)
system.cpu.issueRate                         3.792974                       # Inst issue rate ((Count/Cycle))
system.cpu.fuBusy                             3043830                       # FU busy when requested (Count)
system.cpu.fuBusyRate                        0.010483                       # FU busy rate (busy events/executed inst) ((Count/Count))
system.cpu.intInstQueueReads                648714000                       # Number of integer instruction queue reads (Count)
system.cpu.intInstQueueWrites               319057863                       # Number of integer instruction queue writes (Count)
system.cpu.intInstQueueWakeupAccesses       283270029                       # Number of integer instruction queue wakeup accesses (Count)
system.cpu.fpInstQueueReads                  11629074                       # Number of floating instruction queue reads (Count)
system.cpu.fpInstQueueWrites                  7714055                       # Number of floating instruction queue writes (Count)
system.cpu.fpInstQueueWakeupAccesses          5809452                       # Number of floating instruction queue wakeup accesses (Count)
system.cpu.vecInstQueueReads                        0                       # Number of vector instruction queue reads (Count)
system.cpu.vecInstQueueWrites                       0                       # Number of vector instruction queue writes (Count)
system.cpu.vecInstQueueWakeupAccesses               0                       # Number of vector instruction queue wakeup accesses (Count)
system.cpu.intAluAccesses                   285106892                       # Number of integer alu accesses (Count)
system.cpu.fpAluAccesses                      5814949                       # Number of floating point alu accesses (Count)
system.cpu.vecAluAccesses                           0                       # Number of vector alu accesses (Count)
system.cpu.numSquashedInsts                    957486                       # Number of squashed instructions skipped in execute (Count)
system.cpu.numSwp                                   0                       # Number of swp insts executed (Count)
system.cpu.timesIdled                             590                       # Number of times that the entire CPU went into an idle state and unscheduled itself (Count)
system.cpu.idleCycles                            2127                       # Total number of cycles that the CPU has spent unscheduled due to idling (Cycle)
system.cpu.MemDepUnit__0.insertedLoads       52874560                       # Number of loads inserted to the mem dependence unit. (Count)
system.cpu.MemDepUnit__0.insertedStores      26955825                       # Number of stores inserted to the mem dependence unit. (Count)
system.cpu.MemDepUnit__0.conflictingLoads     12689672                       # Number of conflicting loads. (Count)
system.cpu.MemDepUnit__0.conflictingStores     12503288                       # Number of conflicting stores. (Count)
system.cpu.MemDepUnit__1.insertedLoads              0                       # Number of loads inserted to the mem dependence unit. (Count)
system.cpu.MemDepUnit__1.insertedStores             0                       # Number of stores inserted to the mem dependence unit. (Count)
system.cpu.MemDepUnit__1.conflictingLoads            0                       # Number of conflicting loads. (Count)
system.cpu.MemDepUnit__1.conflictingStores            0                       # Number of conflicting stores. (Count)
system.cpu.MemDepUnit__2.insertedLoads              0                       # Number of loads inserted to the mem dependence unit. (Count)
system.cpu.MemDepUnit__2.insertedStores             0                       # Number of stores inserted to the mem dependence unit. (Count)
system.cpu.MemDepUnit__2.conflictingLoads            0                       # Number of conflicting loads. (Count)
system.cpu.MemDepUnit__2.conflictingStores            0                       # Number of conflicting stores. (Count)
system.cpu.MemDepUnit__3.insertedLoads              0                       # Number of loads inserted to the mem dependence unit. (Count)
system.cpu.MemDepUnit__3.insertedStores             0                       # Number of stores inserted to the mem dependence unit. (Count)
system.cpu.MemDepUnit__3.conflictingLoads            0                       # Number of conflicting loads. (Count)
system.cpu.MemDepUnit__3.conflictingStores            0                       # Number of conflicting stores. (Count)
system.cpu.branchPred.lookups_0::NoBranch         1964      0.01%      0.01% # Number of BP lookups (Count)
system.cpu.branchPred.lookups_0::Return       2634397      9.23%      9.23% # Number of BP lookups (Count)
system.cpu.branchPred.lookups_0::CallDirect      2331832      8.17%     17.40% # Number of BP lookups (Count)
system.cpu.branchPred.lookups_0::CallIndirect         1370      0.00%     17.40% # Number of BP lookups (Count)
system.cpu.branchPred.lookups_0::DirectCond     22783119     79.78%     97.19% # Number of BP lookups (Count)
system.cpu.branchPred.lookups_0::DirectUncond       329869      1.16%     98.34% # Number of BP lookups (Count)
system.cpu.branchPred.lookups_0::IndirectCond            0      0.00%     98.34% # Number of BP lookups (Count)
system.cpu.branchPred.lookups_0::IndirectUncond       473272      1.66%    100.00% # Number of BP lookups (Count)
system.cpu.branchPred.lookups_0::total       28555823                       # Number of BP lookups (Count)
system.cpu.branchPred.squashes_0::NoBranch         1683      0.03%      0.03% # Number of branches that got squashed (completely removed) as an earlier branch was mispredicted. (Count)
system.cpu.branchPred.squashes_0::Return       927503     17.80%     17.83% # Number of branches that got squashed (completely removed) as an earlier branch was mispredicted. (Count)
system.cpu.branchPred.squashes_0::CallDirect       625536     12.01%     29.84% # Number of branches that got squashed (completely removed) as an earlier branch was mispredicted. (Count)
system.cpu.branchPred.squashes_0::CallIndirect          767      0.01%     29.85% # Number of branches that got squashed (completely removed) as an earlier branch was mispredicted. (Count)
system.cpu.branchPred.squashes_0::DirectCond      3488110     66.94%     96.80% # Number of branches that got squashed (completely removed) as an earlier branch was mispredicted. (Count)
system.cpu.branchPred.squashes_0::DirectUncond       160872      3.09%     99.89% # Number of branches that got squashed (completely removed) as an earlier branch was mispredicted. (Count)
system.cpu.branchPred.squashes_0::IndirectCond            0      0.00%     99.89% # Number of branches that got squashed (completely removed) as an earlier branch was mispredicted. (Count)
system.cpu.branchPred.squashes_0::IndirectUncond         5951      0.11%    100.00% # Number of branches that got squashed (completely removed) as an earlier branch was mispredicted. (Count)
system.cpu.branchPred.squashes_0::total       5210422                       # Number of branches that got squashed (completely removed) as an earlier branch was mispredicted. (Count)
system.cpu.branchPred.corrected_0::NoBranch          446      0.14%      0.14% # Number of branches that got corrected but not yet commited. Branches get corrected by decode or after execute. Also a branch misprediction can be detected out-of-order. Therefore, a corrected branch might not end up beeing committed in case an even earlier branch was mispredicted (Count)
system.cpu.branchPred.corrected_0::Return           13      0.00%      0.14% # Number of branches that got corrected but not yet commited. Branches get corrected by decode or after execute. Also a branch misprediction can be detected out-of-order. Therefore, a corrected branch might not end up beeing committed in case an even earlier branch was mispredicted (Count)
system.cpu.branchPred.corrected_0::CallDirect          797      0.25%      0.39% # Number of branches that got corrected but not yet commited. Branches get corrected by decode or after execute. Also a branch misprediction can be detected out-of-order. Therefore, a corrected branch might not end up beeing committed in case an even earlier branch was mispredicted (Count)
system.cpu.branchPred.corrected_0::CallIndirect          242      0.07%      0.46% # Number of branches that got corrected but not yet commited. Branches get corrected by decode or after execute. Also a branch misprediction can be detected out-of-order. Therefore, a corrected branch might not end up beeing committed in case an even earlier branch was mispredicted (Count)
system.cpu.branchPred.corrected_0::DirectCond       321799     99.01%     99.47% # Number of branches that got corrected but not yet commited. Branches get corrected by decode or after execute. Also a branch misprediction can be detected out-of-order. Therefore, a corrected branch might not end up beeing committed in case an even earlier branch was mispredicted (Count)
system.cpu.branchPred.corrected_0::DirectUncond          588      0.18%     99.65% # Number of branches that got corrected but not yet commited. Branches get corrected by decode or after execute. Also a branch misprediction can be detected out-of-order. Therefore, a corrected branch might not end up beeing committed in case an even earlier branch was mispredicted (Count)
system.cpu.branchPred.corrected_0::IndirectCond            0      0.00%     99.65% # Number of branches that got corrected but not yet commited. Branches get corrected by decode or after execute. Also a branch misprediction can be detected out-of-order. Therefore, a corrected branch might not end up beeing committed in case an even earlier branch was mispredicted (Count)
system.cpu.branchPred.corrected_0::IndirectUncond         1131      0.35%    100.00% # Number of branches that got corrected but not yet commited. Branches get corrected by decode or after execute. Also a branch misprediction can be detected out-of-order. Therefore, a corrected branch might not end up beeing committed in case an even earlier branch was mispredicted (Count)
system.cpu.branchPred.corrected_0::total       325016                       # Number of branches that got corrected but not yet commited. Branches get corrected by decode or after execute. Also a branch misprediction can be detected out-of-order. Therefore, a corrected branch might not end up beeing committed in case an even earlier branch was mispredicted (Count)
system.cpu.branchPred.earlyResteers_0::NoBranch            0                       # Number of branches that got redirected after decode. (Count)
system.cpu.branchPred.earlyResteers_0::Return            0                       # Number of branches that got redirected after decode. (Count)
system.cpu.branchPred.earlyResteers_0::CallDirect            0                       # Number of branches that got redirected after decode. (Count)
system.cpu.branchPred.earlyResteers_0::CallIndirect            0                       # Number of branches that got redirected after decode. (Count)
system.cpu.branchPred.earlyResteers_0::DirectCond            0                       # Number of branches that got redirected after decode. (Count)
system.cpu.branchPred.earlyResteers_0::DirectUncond            0                       # Number of branches that got redirected after decode. (Count)
system.cpu.branchPred.earlyResteers_0::IndirectCond            0                       # Number of branches that got redirected after decode. (Count)
system.cpu.branchPred.earlyResteers_0::IndirectUncond            0                       # Number of branches that got redirected after decode. (Count)
system.cpu.branchPred.earlyResteers_0::total            0                       # Number of branches that got redirected after decode. (Count)
system.cpu.branchPred.committed_0::NoBranch          281      0.00%      0.00% # Number of branches finally committed  (Count)
system.cpu.branchPred.committed_0::Return      1706893      7.31%      7.31% # Number of branches finally committed  (Count)
system.cpu.branchPred.committed_0::CallDirect      1706295      7.31%     14.62% # Number of branches finally committed  (Count)
system.cpu.branchPred.committed_0::CallIndirect          603      0.00%     14.62% # Number of branches finally committed  (Count)
system.cpu.branchPred.committed_0::DirectCond     19295002     82.65%     97.27% # Number of branches finally committed  (Count)
system.cpu.branchPred.committed_0::DirectUncond       168997      0.72%     98.00% # Number of branches finally committed  (Count)
system.cpu.branchPred.committed_0::IndirectCond            0      0.00%     98.00% # Number of branches finally committed  (Count)
system.cpu.branchPred.committed_0::IndirectUncond       467321      2.00%    100.00% # Number of branches finally committed  (Count)
system.cpu.branchPred.committed_0::total     23345392                       # Number of branches finally committed  (Count)
system.cpu.branchPred.mispredicted_0::NoBranch          281      0.17%      0.17% # Number of committed branches that were mispredicted. (Count)
system.cpu.branchPred.mispredicted_0::Return            0      0.00%      0.17% # Number of committed branches that were mispredicted. (Count)
system.cpu.branchPred.mispredicted_0::CallDirect          484      0.29%      0.45% # Number of committed branches that were mispredicted. (Count)
system.cpu.branchPred.mispredicted_0::CallIndirect          215      0.13%      0.58% # Number of committed branches that were mispredicted. (Count)
system.cpu.branchPred.mispredicted_0::DirectCond       165768     98.59%     99.17% # Number of committed branches that were mispredicted. (Count)
system.cpu.branchPred.mispredicted_0::DirectUncond          338      0.20%     99.37% # Number of committed branches that were mispredicted. (Count)
system.cpu.branchPred.mispredicted_0::IndirectCond            0      0.00%     99.37% # Number of committed branches that were mispredicted. (Count)
system.cpu.branchPred.mispredicted_0::IndirectUncond         1061      0.63%    100.00% # Number of committed branches that were mispredicted. (Count)
system.cpu.branchPred.mispredicted_0::total       168147                       # Number of committed branches that were mispredicted. (Count)
system.cpu.branchPred.targetProvider_0::NoTarget      5916348     20.72%     20.72% # The component providing the target for taken branches (Count)
system.cpu.branchPred.targetProvider_0::BTB     19537396     68.42%     89.14% # The component providing the target for taken branches (Count)
system.cpu.branchPred.targetProvider_0::RAS      2634396      9.23%     98.36% # The component providing the target for taken branches (Count)
system.cpu.branchPred.targetProvider_0::Indirect       467683      1.64%    100.00% # The component providing the target for taken branches (Count)
system.cpu.branchPred.targetProvider_0::total     28555823                       # The component providing the target for taken branches (Count)
system.cpu.branchPred.targetWrong_0::NoBranch         8067      2.50%      2.50% # Number of branches where the target was incorrect or not available at prediction time. (Count)
system.cpu.branchPred.targetWrong_0::Return       314668     97.45%     99.95% # Number of branches where the target was incorrect or not available at prediction time. (Count)
system.cpu.branchPred.targetWrong_0::CallDirect           13      0.00%     99.96% # Number of branches where the target was incorrect or not available at prediction time. (Count)
system.cpu.branchPred.targetWrong_0::CallIndirect          142      0.04%    100.00% # Number of branches where the target was incorrect or not available at prediction time. (Count)
system.cpu.branchPred.targetWrong_0::DirectCond            0      0.00%    100.00% # Number of branches where the target was incorrect or not available at prediction time. (Count)
system.cpu.branchPred.targetWrong_0::DirectUncond            0      0.00%    100.00% # Number of branches where the target was incorrect or not available at prediction time. (Count)
system.cpu.branchPred.targetWrong_0::IndirectCond            0      0.00%    100.00% # Number of branches where the target was incorrect or not available at prediction time. (Count)
system.cpu.branchPred.targetWrong_0::IndirectUncond            0      0.00%    100.00% # Number of branches where the target was incorrect or not available at prediction time. (Count)
system.cpu.branchPred.targetWrong_0::total       322890                       # Number of branches where the target was incorrect or not available at prediction time. (Count)
system.cpu.branchPred.condPredicted          22785083                       # Number of conditional branches predicted (Count)
system.cpu.branchPred.condPredictedTaken     17034391                       # Number of conditional branches predicted as taken (Count)
system.cpu.branchPred.condIncorrect            325016                       # Number of conditional branches incorrect (Count)
system.cpu.branchPred.predTakenBTBMiss           1689                       # Number of branches predicted taken but missed in BTB (Count)
system.cpu.branchPred.NotTakenMispredicted         9720                       # Number branches predicted 'not taken' but turned out to be taken (Count)
system.cpu.branchPred.TakenMispredicted        315296                       # Number branches predicted taken but are actually not taken (Count)
system.cpu.branchPred.BTBLookups             28555823                       # Number of BTB lookups (Count)
system.cpu.branchPred.BTBUpdates                 7888                       # Number of BTB updates (Count)
system.cpu.branchPred.BTBHits                20391146                       # Number of BTB hits (Count)
system.cpu.branchPred.BTBHitRatio            0.714080                       # BTB Hit Ratio (Ratio)
system.cpu.branchPred.BTBMispredicted            2533                       # Number BTB mispredictions. No target found or target wrong (Count)
system.cpu.branchPred.indirectLookups          474642                       # Number of indirect predictor lookups. (Count)
system.cpu.branchPred.indirectHits             467683                       # Number of indirect target hits. (Count)
system.cpu.branchPred.indirectMisses             6959                       # Number of indirect misses. (Count)
system.cpu.branchPred.indirectMispredicted            0                       # Number of mispredicted indirect branches. (Count)
system.cpu.branchPred.btb.lookups::NoBranch         1964      0.01%      0.01% # Number of BTB lookups (Count)
system.cpu.branchPred.btb.lookups::Return      2634397      9.23%      9.23% # Number of BTB lookups (Count)
system.cpu.branchPred.btb.lookups::CallDirect      2331832      8.17%     17.40% # Number of BTB lookups (Count)
system.cpu.branchPred.btb.lookups::CallIndirect         1370      0.00%     17.40% # Number of BTB lookups (Count)
system.cpu.branchPred.btb.lookups::DirectCond     22783119     79.78%     97.19% # Number of BTB lookups (Count)
system.cpu.branchPred.btb.lookups::DirectUncond       329869      1.16%     98.34% # Number of BTB lookups (Count)
system.cpu.branchPred.btb.lookups::IndirectCond            0      0.00%     98.34% # Number of BTB lookups (Count)
system.cpu.branchPred.btb.lookups::IndirectUncond       473272      1.66%    100.00% # Number of BTB lookups (Count)
system.cpu.branchPred.btb.lookups::total     28555823                       # Number of BTB lookups (Count)
system.cpu.branchPred.btb.misses::NoBranch          386      0.00%      0.00% # Number of BTB misses (Count)
system.cpu.branchPred.btb.misses::Return      2634397     32.27%     32.27% # Number of BTB misses (Count)
system.cpu.branchPred.btb.misses::CallDirect         1290      0.02%     32.29% # Number of BTB misses (Count)
system.cpu.branchPred.btb.misses::CallIndirect         1370      0.02%     32.30% # Number of BTB misses (Count)
system.cpu.branchPred.btb.misses::DirectCond      5053062     61.89%     94.19% # Number of BTB misses (Count)
system.cpu.branchPred.btb.misses::DirectUncond          900      0.01%     94.20% # Number of BTB misses (Count)
system.cpu.branchPred.btb.misses::IndirectCond            0      0.00%     94.20% # Number of BTB misses (Count)
system.cpu.branchPred.btb.misses::IndirectUncond       473272      5.80%    100.00% # Number of BTB misses (Count)
system.cpu.branchPred.btb.misses::total       8164677                       # Number of BTB misses (Count)
system.cpu.branchPred.btb.updates::NoBranch            0      0.00%      0.00% # Number of BTB updates (Count)
system.cpu.branchPred.btb.updates::Return            0      0.00%      0.00% # Number of BTB updates (Count)
system.cpu.branchPred.btb.updates::CallDirect          797     10.10%     10.10% # Number of BTB updates (Count)
system.cpu.branchPred.btb.updates::CallIndirect            0      0.00%     10.10% # Number of BTB updates (Count)
system.cpu.branchPred.btb.updates::DirectCond         6503     82.44%     92.55% # Number of BTB updates (Count)
system.cpu.branchPred.btb.updates::DirectUncond          588      7.45%    100.00% # Number of BTB updates (Count)
system.cpu.branchPred.btb.updates::IndirectCond            0      0.00%    100.00% # Number of BTB updates (Count)
system.cpu.branchPred.btb.updates::IndirectUncond            0      0.00%    100.00% # Number of BTB updates (Count)
system.cpu.branchPred.btb.updates::total         7888                       # Number of BTB updates (Count)
system.cpu.branchPred.btb.mispredict::NoBranch            0      0.00%      0.00% # Number of BTB mispredictions. No target found or target wrong. (Count)
system.cpu.branchPred.btb.mispredict::Return            0      0.00%      0.00% # Number of BTB mispredictions. No target found or target wrong. (Count)
system.cpu.branchPred.btb.mispredict::CallDirect          797     10.10%     10.10% # Number of BTB mispredictions. No target found or target wrong. (Count)
system.cpu.branchPred.btb.mispredict::CallIndirect            0      0.00%     10.10% # Number of BTB mispredictions. No target found or target wrong. (Count)
system.cpu.branchPred.btb.mispredict::DirectCond         6503     82.44%     92.55% # Number of BTB mispredictions. No target found or target wrong. (Count)
system.cpu.branchPred.btb.mispredict::DirectUncond          588      7.45%    100.00% # Number of BTB mispredictions. No target found or target wrong. (Count)
system.cpu.branchPred.btb.mispredict::IndirectCond            0      0.00%    100.00% # Number of BTB mispredictions. No target found or target wrong. (Count)
system.cpu.branchPred.btb.mispredict::IndirectUncond            0      0.00%    100.00% # Number of BTB mispredictions. No target found or target wrong. (Count)
system.cpu.branchPred.btb.mispredict::total         7888                       # Number of BTB mispredictions. No target found or target wrong. (Count)
system.cpu.branchPred.btb.power_state.pwrStateResidencyTicks::UNDEFINED 1020703655104                       # Cumulative time (in ticks) in various power states (Tick)
system.cpu.branchPred.indirectBranchPred.lookups       474642                       # Number of lookups (Count)
system.cpu.branchPred.indirectBranchPred.hits       467683                       # Number of hits of a tag (Count)
system.cpu.branchPred.indirectBranchPred.misses         6959                       # Number of misses (Count)
system.cpu.branchPred.indirectBranchPred.targetRecords         1373                       # Number of targets that where recorded/installed in the cache (Count)
system.cpu.branchPred.indirectBranchPred.indirectRecords       476015                       # Number of indirect branches/calls recorded in the indirect hist (Count)
system.cpu.branchPred.indirectBranchPred.speculativeOverflows            1                       # Number of times more than the allowed capacity for speculative branches/calls where in flight and destroy the path history (Count)
system.cpu.branchPred.ras.pushes              3260705                       # Number of times a PC was pushed onto the RAS (Count)
system.cpu.branchPred.ras.pops                3260700                       # Number of times a PC was poped from the RAS (Count)
system.cpu.branchPred.ras.squashes            1553806                       # Number of times the stack operation was squashed due to wrong speculation. (Count)
system.cpu.branchPred.ras.used                1706893                       # Number of times the RAS is the provider (Count)
system.cpu.branchPred.ras.correct             1706893                       # Number of times the RAS is the provider and the prediction is correct (Count)
system.cpu.branchPred.ras.incorrect                 0                       # Number of times the RAS is the provider and the prediction is wrong (Count)
system.cpu.commit.commitSquashedInsts        27641164                       # The number of squashed insts skipped by commit (Count)
system.cpu.commit.commitNonSpecStalls            2190                       # The number of times commit has been forced to stall to communicate backwards (Count)
system.cpu.commit.branchMispredicts            323681                       # The number of times a branch was mispredicted (Count)
system.cpu.commit.numCommittedDist::samples     72580812                       # Number of insts commited each cycle (Count)
system.cpu.commit.numCommittedDist::mean     3.544761                       # Number of insts commited each cycle (Count)
system.cpu.commit.numCommittedDist::stdev     3.340588                       # Number of insts commited each cycle (Count)
system.cpu.commit.numCommittedDist::underflows            0      0.00%      0.00% # Number of insts commited each cycle (Count)
system.cpu.commit.numCommittedDist::0         5391040      7.43%      7.43% # Number of insts commited each cycle (Count)
system.cpu.commit.numCommittedDist::1        36292810     50.00%     57.43% # Number of insts commited each cycle (Count)
system.cpu.commit.numCommittedDist::2         1165332      1.61%     59.04% # Number of insts commited each cycle (Count)
system.cpu.commit.numCommittedDist::3         2627476      3.62%     62.66% # Number of insts commited each cycle (Count)
system.cpu.commit.numCommittedDist::4          806961      1.11%     63.77% # Number of insts commited each cycle (Count)
system.cpu.commit.numCommittedDist::5          487761      0.67%     64.44% # Number of insts commited each cycle (Count)
system.cpu.commit.numCommittedDist::6          477556      0.66%     65.10% # Number of insts commited each cycle (Count)
system.cpu.commit.numCommittedDist::7          411291      0.57%     65.67% # Number of insts commited each cycle (Count)
system.cpu.commit.numCommittedDist::8        24920585     34.33%    100.00% # Number of insts commited each cycle (Count)
system.cpu.commit.numCommittedDist::overflows            0      0.00%    100.00% # Number of insts commited each cycle (Count)
system.cpu.commit.numCommittedDist::min_value            0                       # Number of insts commited each cycle (Count)
system.cpu.commit.numCommittedDist::max_value            8                       # Number of insts commited each cycle (Count)
system.cpu.commit.numCommittedDist::total     72580812                       # Number of insts commited each cycle (Count)
system.cpu.commit.amos                              0                       # Number of atomic instructions committed (Count)
system.cpu.commit.membars                         992                       # Number of memory barriers committed (Count)
system.cpu.commit.functionCalls               1706898                       # Number of function calls committed. (Count)
system.cpu.commit.committedInstType_0::No_OpClass      2018454      0.78%      0.78% # Class of committed instruction (Count)
system.cpu.commit.committedInstType_0::IntAlu    180597162     70.19%     70.98% # Class of committed instruction (Count)
system.cpu.commit.committedInstType_0::IntMult       308165      0.12%     71.10% # Class of committed instruction (Count)
system.cpu.commit.committedInstType_0::IntDiv        38763      0.02%     71.11% # Class of committed instruction (Count)
system.cpu.commit.committedInstType_0::FloatAdd       623230      0.24%     71.36% # Class of committed instruction (Count)
system.cpu.commit.committedInstType_0::FloatCmp            0      0.00%     71.36% # Class of committed instruction (Count)
system.cpu.commit.committedInstType_0::FloatCvt         1232      0.00%     71.36% # Class of committed instruction (Count)
system.cpu.commit.committedInstType_0::FloatMult            0      0.00%     71.36% # Class of committed instruction (Count)
system.cpu.commit.committedInstType_0::FloatMultAcc            0      0.00%     71.36% # Class of committed instruction (Count)
system.cpu.commit.committedInstType_0::FloatDiv            0      0.00%     71.36% # Class of committed instruction (Count)
system.cpu.commit.committedInstType_0::FloatMisc            0      0.00%     71.36% # Class of committed instruction (Count)
system.cpu.commit.committedInstType_0::FloatSqrt            0      0.00%     71.36% # Class of committed instruction (Count)
system.cpu.commit.committedInstType_0::SimdAdd         6510      0.00%     71.36% # Class of committed instruction (Count)
system.cpu.commit.committedInstType_0::SimdAddAcc            0      0.00%     71.36% # Class of committed instruction (Count)
system.cpu.commit.committedInstType_0::SimdAlu       321324      0.12%     71.48% # Class of committed instruction (Count)
system.cpu.commit.committedInstType_0::SimdCmp            6      0.00%     71.48% # Class of committed instruction (Count)
system.cpu.commit.committedInstType_0::SimdCvt        13504      0.01%     71.49% # Class of committed instruction (Count)
system.cpu.commit.committedInstType_0::SimdMisc      1399690      0.54%     72.03% # Class of committed instruction (Count)
system.cpu.commit.committedInstType_0::SimdMult            0      0.00%     72.03% # Class of committed instruction (Count)
system.cpu.commit.committedInstType_0::SimdMultAcc            0      0.00%     72.03% # Class of committed instruction (Count)
system.cpu.commit.committedInstType_0::SimdMatMultAcc            0      0.00%     72.03% # Class of committed instruction (Count)
system.cpu.commit.committedInstType_0::SimdShift         1931      0.00%     72.03% # Class of committed instruction (Count)
system.cpu.commit.committedInstType_0::SimdShiftAcc            0      0.00%     72.03% # Class of committed instruction (Count)
system.cpu.commit.committedInstType_0::SimdDiv            0      0.00%     72.03% # Class of committed instruction (Count)
system.cpu.commit.committedInstType_0::SimdSqrt            0      0.00%     72.03% # Class of committed instruction (Count)
system.cpu.commit.committedInstType_0::SimdFloatAdd       154034      0.06%     72.09% # Class of committed instruction (Count)
system.cpu.commit.committedInstType_0::SimdFloatAlu            0      0.00%     72.09% # Class of committed instruction (Count)
system.cpu.commit.committedInstType_0::SimdFloatCmp            0      0.00%     72.09% # Class of committed instruction (Count)
system.cpu.commit.committedInstType_0::SimdFloatCvt       308068      0.12%     72.21% # Class of committed instruction (Count)
system.cpu.commit.committedInstType_0::SimdFloatDiv       154034      0.06%     72.27% # Class of committed instruction (Count)
system.cpu.commit.committedInstType_0::SimdFloatMisc            0      0.00%     72.27% # Class of committed instruction (Count)
system.cpu.commit.committedInstType_0::SimdFloatMult            0      0.00%     72.27% # Class of committed instruction (Count)
system.cpu.commit.committedInstType_0::SimdFloatMultAcc            0      0.00%     72.27% # Class of committed instruction (Count)
system.cpu.commit.committedInstType_0::SimdFloatMatMultAcc            0      0.00%     72.27% # Class of committed instruction (Count)
system.cpu.commit.committedInstType_0::SimdFloatSqrt            0      0.00%     72.27% # Class of committed instruction (Count)
system.cpu.commit.committedInstType_0::SimdReduceAdd            0      0.00%     72.27% # Class of committed instruction (Count)
system.cpu.commit.committedInstType_0::SimdReduceAlu            0      0.00%     72.27% # Class of committed instruction (Count)
system.cpu.commit.committedInstType_0::SimdReduceCmp            0      0.00%     72.27% # Class of committed instruction (Count)
system.cpu.commit.committedInstType_0::SimdFloatReduceAdd            0      0.00%     72.27% # Class of committed instruction (Count)
system.cpu.commit.committedInstType_0::SimdFloatReduceCmp            0      0.00%     72.27% # Class of committed instruction (Count)
system.cpu.commit.committedInstType_0::SimdAes            0      0.00%     72.27% # Class of committed instruction (Count)
system.cpu.commit.committedInstType_0::SimdAesMix            0      0.00%     72.27% # Class of committed instruction (Count)
system.cpu.commit.committedInstType_0::SimdSha1Hash            0      0.00%     72.27% # Class of committed instruction (Count)
system.cpu.commit.committedInstType_0::SimdSha1Hash2            0      0.00%     72.27% # Class of committed instruction (Count)
system.cpu.commit.committedInstType_0::SimdSha256Hash            0      0.00%     72.27% # Class of committed instruction (Count)
system.cpu.commit.committedInstType_0::SimdSha256Hash2            0      0.00%     72.27% # Class of committed instruction (Count)
system.cpu.commit.committedInstType_0::SimdShaSigma2            0      0.00%     72.27% # Class of committed instruction (Count)
system.cpu.commit.committedInstType_0::SimdShaSigma3            0      0.00%     72.27% # Class of committed instruction (Count)
system.cpu.commit.committedInstType_0::SimdPredAlu            0      0.00%     72.27% # Class of committed instruction (Count)
system.cpu.commit.committedInstType_0::Matrix            0      0.00%     72.27% # Class of committed instruction (Count)
system.cpu.commit.committedInstType_0::MatrixMov            0      0.00%     72.27% # Class of committed instruction (Count)
system.cpu.commit.committedInstType_0::MatrixOP            0      0.00%     72.27% # Class of committed instruction (Count)
system.cpu.commit.committedInstType_0::MemRead     46583916     18.11%     90.38% # Class of committed instruction (Count)
system.cpu.commit.committedInstType_0::MemWrite     23949271      9.31%     99.69% # Class of committed instruction (Count)
system.cpu.commit.committedInstType_0::FloatMemRead       633463      0.25%     99.93% # Class of committed instruction (Count)
system.cpu.commit.committedInstType_0::FloatMemWrite       168847      0.07%    100.00% # Class of committed instruction (Count)
system.cpu.commit.committedInstType_0::IprAccess            0      0.00%    100.00% # Class of committed instruction (Count)
system.cpu.commit.committedInstType_0::InstPrefetch            0      0.00%    100.00% # Class of committed instruction (Count)
system.cpu.commit.committedInstType_0::SimdUnitStrideLoad            0      0.00%    100.00% # Class of committed instruction (Count)
system.cpu.commit.committedInstType_0::SimdUnitStrideStore            0      0.00%    100.00% # Class of committed instruction (Count)
system.cpu.commit.committedInstType_0::SimdUnitStrideMaskLoad            0      0.00%    100.00% # Class of committed instruction (Count)
system.cpu.commit.committedInstType_0::SimdUnitStrideMaskStore            0      0.00%    100.00% # Class of committed instruction (Count)
system.cpu.commit.committedInstType_0::SimdStridedLoad            0      0.00%    100.00% # Class of committed instruction (Count)
system.cpu.commit.committedInstType_0::SimdStridedStore            0      0.00%    100.00% # Class of committed instruction (Count)
system.cpu.commit.committedInstType_0::SimdIndexedLoad            0      0.00%    100.00% # Class of committed instruction (Count)
system.cpu.commit.committedInstType_0::SimdIndexedStore            0      0.00%    100.00% # Class of committed instruction (Count)
system.cpu.commit.committedInstType_0::SimdWholeRegisterLoad            0      0.00%    100.00% # Class of committed instruction (Count)
system.cpu.commit.committedInstType_0::SimdWholeRegisterStore            0      0.00%    100.00% # Class of committed instruction (Count)
system.cpu.commit.committedInstType_0::SimdUnitStrideFaultOnlyFirstLoad            0      0.00%    100.00% # Class of committed instruction (Count)
system.cpu.commit.committedInstType_0::SimdUnitStrideSegmentedLoad            0      0.00%    100.00% # Class of committed instruction (Count)
system.cpu.commit.committedInstType_0::SimdUnitStrideSegmentedStore            0      0.00%    100.00% # Class of committed instruction (Count)
system.cpu.commit.committedInstType_0::SimdExt            0      0.00%    100.00% # Class of committed instruction (Count)
system.cpu.commit.committedInstType_0::SimdFloatExt            0      0.00%    100.00% # Class of committed instruction (Count)
system.cpu.commit.committedInstType_0::SimdConfig            0      0.00%    100.00% # Class of committed instruction (Count)
system.cpu.commit.committedInstType_0::total    257281604                       # Class of committed instruction (Count)
system.cpu.commit.commitEligibleSamples      24920585                       # number cycles where commit BW limit reached (Cycle)
system.cpu.commitStats0.numInsts            127357737                       # Number of instructions committed (thread level) (Count)
system.cpu.commitStats0.numOps              257281604                       # Number of ops (including micro ops) committed (thread level) (Count)
system.cpu.commitStats0.numInstsNotNOP      127357737                       # Number of instructions committed excluding NOPs or prefetches (Count)
system.cpu.commitStats0.numOpsNotNOP        257281604                       # Number of Ops (including micro ops) Simulated (Count)
system.cpu.commitStats0.cpi                  0.601100                       # CPI: cycles per instruction (thread level) ((Cycle/Count))
system.cpu.commitStats0.ipc                  1.663618                       # IPC: instructions per cycle (thread level) ((Count/Cycle))
system.cpu.commitStats0.numMemRefs           71335497                       # Number of memory references committed (Count)
system.cpu.commitStats0.numFpInsts            3943735                       # Number of float instructions (Count)
system.cpu.commitStats0.numIntInsts         252585079                       # Number of integer instructions (Count)
system.cpu.commitStats0.numLoadInsts         47217379                       # Number of load instructions (Count)
system.cpu.commitStats0.numStoreInsts        24118118                       # Number of store instructions (Count)
system.cpu.commitStats0.numVecInsts                 0                       # Number of vector instructions (Count)
system.cpu.commitStats0.committedInstType::No_OpClass      2018454      0.78%      0.78% # Class of committed instruction. (Count)
system.cpu.commitStats0.committedInstType::IntAlu    180597162     70.19%     70.98% # Class of committed instruction. (Count)
system.cpu.commitStats0.committedInstType::IntMult       308165      0.12%     71.10% # Class of committed instruction. (Count)
system.cpu.commitStats0.committedInstType::IntDiv        38763      0.02%     71.11% # Class of committed instruction. (Count)
system.cpu.commitStats0.committedInstType::FloatAdd       623230      0.24%     71.36% # Class of committed instruction. (Count)
system.cpu.commitStats0.committedInstType::FloatCmp            0      0.00%     71.36% # Class of committed instruction. (Count)
system.cpu.commitStats0.committedInstType::FloatCvt         1232      0.00%     71.36% # Class of committed instruction. (Count)
system.cpu.commitStats0.committedInstType::FloatMult            0      0.00%     71.36% # Class of committed instruction. (Count)
system.cpu.commitStats0.committedInstType::FloatMultAcc            0      0.00%     71.36% # Class of committed instruction. (Count)
system.cpu.commitStats0.committedInstType::FloatDiv            0      0.00%     71.36% # Class of committed instruction. (Count)
system.cpu.commitStats0.committedInstType::FloatMisc            0      0.00%     71.36% # Class of committed instruction. (Count)
system.cpu.commitStats0.committedInstType::FloatSqrt            0      0.00%     71.36% # Class of committed instruction. (Count)
system.cpu.commitStats0.committedInstType::SimdAdd         6510      0.00%     71.36% # Class of committed instruction. (Count)
system.cpu.commitStats0.committedInstType::SimdAddAcc            0      0.00%     71.36% # Class of committed instruction. (Count)
system.cpu.commitStats0.committedInstType::SimdAlu       321324      0.12%     71.48% # Class of committed instruction. (Count)
system.cpu.commitStats0.committedInstType::SimdCmp            6      0.00%     71.48% # Class of committed instruction. (Count)
system.cpu.commitStats0.committedInstType::SimdCvt        13504      0.01%     71.49% # Class of committed instruction. (Count)
system.cpu.commitStats0.committedInstType::SimdMisc      1399690      0.54%     72.03% # Class of committed instruction. (Count)
system.cpu.commitStats0.committedInstType::SimdMult            0      0.00%     72.03% # Class of committed instruction. (Count)
system.cpu.commitStats0.committedInstType::SimdMultAcc            0      0.00%     72.03% # Class of committed instruction. (Count)
system.cpu.commitStats0.committedInstType::SimdMatMultAcc            0      0.00%     72.03% # Class of committed instruction. (Count)
system.cpu.commitStats0.committedInstType::SimdShift         1931      0.00%     72.03% # Class of committed instruction. (Count)
system.cpu.commitStats0.committedInstType::SimdShiftAcc            0      0.00%     72.03% # Class of committed instruction. (Count)
system.cpu.commitStats0.committedInstType::SimdDiv            0      0.00%     72.03% # Class of committed instruction. (Count)
system.cpu.commitStats0.committedInstType::SimdSqrt            0      0.00%     72.03% # Class of committed instruction. (Count)
system.cpu.commitStats0.committedInstType::SimdFloatAdd       154034      0.06%     72.09% # Class of committed instruction. (Count)
system.cpu.commitStats0.committedInstType::SimdFloatAlu            0      0.00%     72.09% # Class of committed instruction. (Count)
system.cpu.commitStats0.committedInstType::SimdFloatCmp            0      0.00%     72.09% # Class of committed instruction. (Count)
system.cpu.commitStats0.committedInstType::SimdFloatCvt       308068      0.12%     72.21% # Class of committed instruction. (Count)
system.cpu.commitStats0.committedInstType::SimdFloatDiv       154034      0.06%     72.27% # Class of committed instruction. (Count)
system.cpu.commitStats0.committedInstType::SimdFloatMisc            0      0.00%     72.27% # Class of committed instruction. (Count)
system.cpu.commitStats0.committedInstType::SimdFloatMult            0      0.00%     72.27% # Class of committed instruction. (Count)
system.cpu.commitStats0.committedInstType::SimdFloatMultAcc            0      0.00%     72.27% # Class of committed instruction. (Count)
system.cpu.commitStats0.committedInstType::SimdFloatMatMultAcc            0      0.00%     72.27% # Class of committed instruction. (Count)
system.cpu.commitStats0.committedInstType::SimdFloatSqrt            0      0.00%     72.27% # Class of committed instruction. (Count)
system.cpu.commitStats0.committedInstType::SimdReduceAdd            0      0.00%     72.27% # Class of committed instruction. (Count)
system.cpu.commitStats0.committedInstType::SimdReduceAlu            0      0.00%     72.27% # Class of committed instruction. (Count)
system.cpu.commitStats0.committedInstType::SimdReduceCmp            0      0.00%     72.27% # Class of committed instruction. (Count)
system.cpu.commitStats0.committedInstType::SimdFloatReduceAdd            0      0.00%     72.27% # Class of committed instruction. (Count)
system.cpu.commitStats0.committedInstType::SimdFloatReduceCmp            0      0.00%     72.27% # Class of committed instruction. (Count)
system.cpu.commitStats0.committedInstType::SimdAes            0      0.00%     72.27% # Class of committed instruction. (Count)
system.cpu.commitStats0.committedInstType::SimdAesMix            0      0.00%     72.27% # Class of committed instruction. (Count)
system.cpu.commitStats0.committedInstType::SimdSha1Hash            0      0.00%     72.27% # Class of committed instruction. (Count)
system.cpu.commitStats0.committedInstType::SimdSha1Hash2            0      0.00%     72.27% # Class of committed instruction. (Count)
system.cpu.commitStats0.committedInstType::SimdSha256Hash            0      0.00%     72.27% # Class of committed instruction. (Count)
system.cpu.commitStats0.committedInstType::SimdSha256Hash2            0      0.00%     72.27% # Class of committed instruction. (Count)
system.cpu.commitStats0.committedInstType::SimdShaSigma2            0      0.00%     72.27% # Class of committed instruction. (Count)
system.cpu.commitStats0.committedInstType::SimdShaSigma3            0      0.00%     72.27% # Class of committed instruction. (Count)
system.cpu.commitStats0.committedInstType::SimdPredAlu            0      0.00%     72.27% # Class of committed instruction. (Count)
system.cpu.commitStats0.committedInstType::Matrix            0      0.00%     72.27% # Class of committed instruction. (Count)
system.cpu.commitStats0.committedInstType::MatrixMov            0      0.00%     72.27% # Class of committed instruction. (Count)
system.cpu.commitStats0.committedInstType::MatrixOP            0      0.00%     72.27% # Class of committed instruction. (Count)
system.cpu.commitStats0.committedInstType::MemRead     46583916     18.11%     90.38% # Class of committed instruction. (Count)
system.cpu.commitStats0.committedInstType::MemWrite     23949271      9.31%     99.69% # Class of committed instruction. (Count)
system.cpu.commitStats0.committedInstType::FloatMemRead       633463      0.25%     99.93% # Class of committed instruction. (Count)
system.cpu.commitStats0.committedInstType::FloatMemWrite       168847      0.07%    100.00% # Class of committed instruction. (Count)
system.cpu.commitStats0.committedInstType::IprAccess            0      0.00%    100.00% # Class of committed instruction. (Count)
system.cpu.commitStats0.committedInstType::InstPrefetch            0      0.00%    100.00% # Class of committed instruction. (Count)
system.cpu.commitStats0.committedInstType::SimdUnitStrideLoad            0      0.00%    100.00% # Class of committed instruction. (Count)
system.cpu.commitStats0.committedInstType::SimdUnitStrideStore            0      0.00%    100.00% # Class of committed instruction. (Count)
system.cpu.commitStats0.committedInstType::SimdUnitStrideMaskLoad            0      0.00%    100.00% # Class of committed instruction. (Count)
system.cpu.commitStats0.committedInstType::SimdUnitStrideMaskStore            0      0.00%    100.00% # Class of committed instruction. (Count)
system.cpu.commitStats0.committedInstType::SimdStridedLoad            0      0.00%    100.00% # Class of committed instruction. (Count)
system.cpu.commitStats0.committedInstType::SimdStridedStore            0      0.00%    100.00% # Class of committed instruction. (Count)
system.cpu.commitStats0.committedInstType::SimdIndexedLoad            0      0.00%    100.00% # Class of committed instruction. (Count)
system.cpu.commitStats0.committedInstType::SimdIndexedStore            0      0.00%    100.00% # Class of committed instruction. (Count)
system.cpu.commitStats0.committedInstType::SimdWholeRegisterLoad            0      0.00%    100.00% # Class of committed instruction. (Count)
system.cpu.commitStats0.committedInstType::SimdWholeRegisterStore            0      0.00%    100.00% # Class of committed instruction. (Count)
system.cpu.commitStats0.committedInstType::SimdUnitStrideFaultOnlyFirstLoad            0      0.00%    100.00% # Class of committed instruction. (Count)
system.cpu.commitStats0.committedInstType::SimdUnitStrideSegmentedLoad            0      0.00%    100.00% # Class of committed instruction. (Count)
system.cpu.commitStats0.committedInstType::SimdUnitStrideSegmentedStore            0      0.00%    100.00% # Class of committed instruction. (Count)
system.cpu.commitStats0.committedInstType::SimdExt            0      0.00%    100.00% # Class of committed instruction. (Count)
system.cpu.commitStats0.committedInstType::SimdFloatExt            0      0.00%    100.00% # Class of committed instruction. (Count)
system.cpu.commitStats0.committedInstType::SimdConfig            0      0.00%    100.00% # Class of committed instruction. (Count)
system.cpu.commitStats0.committedInstType::total    257281604                       # Class of committed instruction. (Count)
system.cpu.commitStats0.committedControl::IsControl     23345392                       # Class of control type instructions committed (Count)
system.cpu.commitStats0.committedControl::IsDirectControl     21170294                       # Class of control type instructions committed (Count)
system.cpu.commitStats0.committedControl::IsIndirectControl      2174817                       # Class of control type instructions committed (Count)
system.cpu.commitStats0.committedControl::IsCondControl     19295002                       # Class of control type instructions committed (Count)
system.cpu.commitStats0.committedControl::IsUncondControl      4050109                       # Class of control type instructions committed (Count)
system.cpu.commitStats0.committedControl::IsCall      1706898                       # Class of control type instructions committed (Count)
system.cpu.commitStats0.committedControl::IsReturn      1706893                       # Class of control type instructions committed (Count)
system.cpu.decode.idleCycles                  6115165                       # Number of cycles decode is idle (Cycle)
system.cpu.decode.blockedCycles              28256779                       # Number of cycles decode is blocked (Cycle)
system.cpu.decode.runCycles                  30560376                       # Number of cycles decode is running (Cycle)
system.cpu.decode.unblockCycles              11141311                       # Number of cycles decode is unblocking (Cycle)
system.cpu.decode.squashCycles                 478931                       # Number of cycles decode is squashing (Cycle)
system.cpu.decode.branchResolved             18446172                       # Number of times decode resolved a branch (Count)
system.cpu.decode.branchMispred                  1558                       # Number of times decode detected a branch misprediction (Count)
system.cpu.decode.decodedInsts              296249506                       # Number of instructions handled by decode (Count)
system.cpu.decode.squashedInsts                  8232                       # Number of squashed instructions handled by decode (Count)
system.cpu.executeStats0.numInsts           289412472                       # Number of executed instructions (Count)
system.cpu.executeStats0.numNop                     0                       # Number of nop insts executed (Count)
system.cpu.executeStats0.numBranches         26308440                       # Number of branches executed (Count)
system.cpu.executeStats0.numLoadInsts        52528669                       # Number of load instructions executed (Count)
system.cpu.executeStats0.numStoreInsts       26629618                       # Number of stores executed (Count)
system.cpu.executeStats0.instRate            3.780467                       # Inst execution rate ((Count/Cycle))
system.cpu.executeStats0.numCCRegReads      111056131                       # Number of times the CC registers were read (Count)
system.cpu.executeStats0.numCCRegWrites     116184224                       # Number of times the CC registers were written (Count)
system.cpu.executeStats0.numFpRegReads        7699970                       # Number of times the floating registers were read (Count)
system.cpu.executeStats0.numFpRegWrites       5169247                       # Number of times the floating registers were written (Count)
system.cpu.executeStats0.numIntRegReads     345564435                       # Number of times the integer registers were read (Count)
system.cpu.executeStats0.numIntRegWrites    208512907                       # Number of times the integer registers were written (Count)
system.cpu.executeStats0.numMemRefs          79158287                       # Number of memory refs (Count)
system.cpu.executeStats0.numMiscRegReads    131790072                       # Number of times the Misc registers were read (Count)
system.cpu.executeStats0.numMiscRegWrites          693                       # Number of times the Misc registers were written (Count)
system.cpu.executeStats0.numVecAluAccesses            0                       # Number of vector alu accesses (Count)
system.cpu.executeStats0.numDiscardedOps            0                       # Number of ops (including micro ops) which were discarded before commit (Count)
system.cpu.fetch.predictedBranches           22639475                       # Number of branches that fetch has predicted taken (Count)
system.cpu.fetch.cycles                      75559671                       # Number of cycles fetch has run and was not squashing or blocked (Cycle)
system.cpu.fetch.squashCycles                  960902                       # Number of cycles fetch has spent squashing (Cycle)
system.cpu.fetch.miscStallCycles                  232                       # Number of cycles fetch has spent waiting on interrupts, or bad addresses, or out of MSHRs (Cycle)
system.cpu.fetch.pendingTrapStallCycles          2178                       # Number of stall cycles due to pending traps (Cycle)
system.cpu.fetch.cacheLines                  11807475                       # Number of cache lines fetched (Count)
[...]
system.mem_ctrl.dram.bwRead::total          272728156                       # Total read bandwidth from this memory ((Byte/Second))
system.mem_ctrl.dram.bwInstRead::cpu.inst    146940673                       # Instruction read bandwidth from this memory ((Byte/Second))
system.mem_ctrl.dram.bwInstRead::total      146940673                       # Instruction read bandwidth from this memory ((Byte/Second))
system.mem_ctrl.dram.bwWrite::writebacks     31425108                       # Write bandwidth from this memory ((Byte/Second))
system.mem_ctrl.dram.bwWrite::total          31425108                       # Write bandwidth from this memory ((Byte/Second))
system.mem_ctrl.dram.bwTotal::writebacks     31425108                       # Total bandwidth to/from this memory ((Byte/Second))
system.mem_ctrl.dram.bwTotal::cpu.inst      146940673                       # Total bandwidth to/from this memory ((Byte/Second))
system.mem_ctrl.dram.bwTotal::cpu.data      125787483                       # Total bandwidth to/from this memory ((Byte/Second))
system.mem_ctrl.dram.bwTotal::total         304153264                       # Total bandwidth to/from this memory ((Byte/Second))
system.mem_ctrl.dram.readBursts                  3005                       # Number of DRAM read bursts (Count)
system.mem_ctrl.dram.writeBursts                  307                       # Number of DRAM write bursts (Count)
system.mem_ctrl.dram.perBankRdBursts::0           247                       # Per bank write bursts (Count)
system.mem_ctrl.dram.perBankRdBursts::1           174                       # Per bank write bursts (Count)
system.mem_ctrl.dram.perBankRdBursts::2           270                       # Per bank write bursts (Count)
system.mem_ctrl.dram.perBankRdBursts::3           193                       # Per bank write bursts (Count)
system.mem_ctrl.dram.perBankRdBursts::4           330                       # Per bank write bursts (Count)
system.mem_ctrl.dram.perBankRdBursts::5           223                       # Per bank write bursts (Count)
system.mem_ctrl.dram.perBankRdBursts::6           134                       # Per bank write bursts (Count)
system.mem_ctrl.dram.perBankRdBursts::7           136                       # Per bank write bursts (Count)
system.mem_ctrl.dram.perBankRdBursts::8           169                       # Per bank write bursts (Count)
system.mem_ctrl.dram.perBankRdBursts::9            92                       # Per bank write bursts (Count)
system.mem_ctrl.dram.perBankRdBursts::10           67                       # Per bank write bursts (Count)
system.mem_ctrl.dram.perBankRdBursts::11          152                       # Per bank write bursts (Count)
system.mem_ctrl.dram.perBankRdBursts::12          248                       # Per bank write bursts (Count)
system.mem_ctrl.dram.perBankRdBursts::13          238                       # Per bank write bursts (Count)
system.mem_ctrl.dram.perBankRdBursts::14          200                       # Per bank write bursts (Count)
system.mem_ctrl.dram.perBankRdBursts::15          132                       # Per bank write bursts (Count)
system.mem_ctrl.dram.perBankWrBursts::0            49                       # Per bank write bursts (Count)
system.mem_ctrl.dram.perBankWrBursts::1            26                       # Per bank write bursts (Count)
system.mem_ctrl.dram.perBankWrBursts::2            25                       # Per bank write bursts (Count)
system.mem_ctrl.dram.perBankWrBursts::3            15                       # Per bank write bursts (Count)
system.mem_ctrl.dram.perBankWrBursts::4            10                       # Per bank write bursts (Count)
system.mem_ctrl.dram.perBankWrBursts::5             1                       # Per bank write bursts (Count)
system.mem_ctrl.dram.perBankWrBursts::6             0                       # Per bank write bursts (Count)
system.mem_ctrl.dram.perBankWrBursts::7            13                       # Per bank write bursts (Count)
system.mem_ctrl.dram.perBankWrBursts::8             5                       # Per bank write bursts (Count)
system.mem_ctrl.dram.perBankWrBursts::9             6                       # Per bank write bursts (Count)
system.mem_ctrl.dram.perBankWrBursts::10            7                       # Per bank write bursts (Count)
system.mem_ctrl.dram.perBankWrBursts::11            7                       # Per bank write bursts (Count)
system.mem_ctrl.dram.perBankWrBursts::12          105                       # Per bank write bursts (Count)
system.mem_ctrl.dram.perBankWrBursts::13           28                       # Per bank write bursts (Count)
system.mem_ctrl.dram.perBankWrBursts::14            9                       # Per bank write bursts (Count)
system.mem_ctrl.dram.perBankWrBursts::15            1                       # Per bank write bursts (Count)
system.mem_ctrl.dram.totQLat                 39144684                       # Total ticks spent queuing (Tick)
system.mem_ctrl.dram.totBusLat               15025000                       # Total ticks spent in databus transfers (Tick)
system.mem_ctrl.dram.totMemAccLat            95488434                       # Total ticks spent from burst creation until serviced by the DRAM (Tick)
system.mem_ctrl.dram.avgQLat                 13026.52                       # Average queueing delay per DRAM burst ((Tick/Count))
system.mem_ctrl.dram.avgBusLat                5000.00                       # Average bus latency per DRAM burst ((Tick/Count))
system.mem_ctrl.dram.avgMemAccLat            31776.52                       # Average memory access latency per DRAM burst ((Tick/Count))
system.mem_ctrl.dram.readRowHits                 1657                       # Number of row buffer hits during reads (Count)
system.mem_ctrl.dram.writeRowHits                 244                       # Number of row buffer hits during writes (Count)
system.mem_ctrl.dram.readRowHitRate             55.14                       # Row buffer hit rate for reads (Ratio)
system.mem_ctrl.dram.writeRowHitRate            79.48                       # Row buffer hit rate for writes (Ratio)
system.mem_ctrl.dram.bytesPerActivate::samples         1410                       # Bytes accessed per row activation (Byte)
system.mem_ctrl.dram.bytesPerActivate::mean   149.832624                       # Bytes accessed per row activation (Byte)
system.mem_ctrl.dram.bytesPerActivate::gmean   113.166502                       # Bytes accessed per row activation (Byte)
system.mem_ctrl.dram.bytesPerActivate::stdev   147.646674                       # Bytes accessed per row activation (Byte)
system.mem_ctrl.dram.bytesPerActivate::0-127          699     49.57%     49.57% # Bytes accessed per row activation (Byte)
system.mem_ctrl.dram.bytesPerActivate::128-255          483     34.26%     83.83% # Bytes accessed per row activation (Byte)
system.mem_ctrl.dram.bytesPerActivate::256-383          118      8.37%     92.20% # Bytes accessed per row activation (Byte)
system.mem_ctrl.dram.bytesPerActivate::384-511           55      3.90%     96.10% # Bytes accessed per row activation (Byte)
system.mem_ctrl.dram.bytesPerActivate::512-639           21      1.49%     97.59% # Bytes accessed per row activation (Byte)
system.mem_ctrl.dram.bytesPerActivate::640-767           13      0.92%     98.51% # Bytes accessed per row activation (Byte)
system.mem_ctrl.dram.bytesPerActivate::768-895            8      0.57%     99.08% # Bytes accessed per row activation (Byte)
system.mem_ctrl.dram.bytesPerActivate::896-1023            4      0.28%     99.36% # Bytes accessed per row activation (Byte)
system.mem_ctrl.dram.bytesPerActivate::1024-1151            9      0.64%    100.00% # Bytes accessed per row activation (Byte)
system.mem_ctrl.dram.bytesPerActivate::total         1410                       # Bytes accessed per row activation (Byte)
system.mem_ctrl.dram.dramBytesRead             192320                       # Total bytes read (Byte)
system.mem_ctrl.dram.dramBytesWritten           19648                       # Total bytes written (Byte)
system.mem_ctrl.dram.avgRdBW               261.585735                       # Average DRAM read bandwidth in MiBytes/s ((Byte/Second))
system.mem_ctrl.dram.avgWrBW                26.724400                       # Average DRAM write bandwidth in MiBytes/s ((Byte/Second))
system.mem_ctrl.dram.peakBW                  12800.00                       # Theoretical peak bandwidth in MiByte/s ((Byte/Second))
system.mem_ctrl.dram.busUtil                     2.25                       # Data bus utilization in percentage (Ratio)
system.mem_ctrl.dram.busUtilRead                 2.04                       # Data bus utilization in percentage for reads (Ratio)
system.mem_ctrl.dram.busUtilWrite                0.21                       # Data bus utilization in percentage for writes (Ratio)
system.mem_ctrl.dram.pageHitRate                57.40                       # Row buffer hit rate, read and write combined (Ratio)
system.mem_ctrl.dram.power_state.pwrStateResidencyTicks::UNDEFINED    735208286                       # Cumulative time (in ticks) in various power states (Tick)
system.mem_ctrl.dram.rank0.actEnergy          5476380                       # Energy for activate commands per rank (pJ) (Joule)
system.mem_ctrl.dram.rank0.preEnergy          2922150                       # Energy for precharge commands per rank (pJ) (Joule)
system.mem_ctrl.dram.rank0.readEnergy        12187980                       # Energy for read commands per rank (pJ) (Joule)
system.mem_ctrl.dram.rank0.writeEnergy         725580                       # Energy for write commands per rank (pJ) (Joule)
system.mem_ctrl.dram.rank0.refreshEnergy 57776160.000000                       # Energy for refresh commands per rank (pJ) (Joule)
system.mem_ctrl.dram.rank0.actBackEnergy    308071320                       # Energy for active background per rank (pJ) (Joule)
system.mem_ctrl.dram.rank0.preBackEnergy     22891200                       # Energy for precharge background per rank (pJ) (Joule)
system.mem_ctrl.dram.rank0.actPowerDownEnergy            0                       # Energy for active power-down per rank (pJ) (Joule)
system.mem_ctrl.dram.rank0.prePowerDownEnergy            0                       # Energy for precharge power-down per rank (pJ) (Joule)
system.mem_ctrl.dram.rank0.selfRefreshEnergy            0                       # Energy for self refresh per rank (pJ) (Joule)
system.mem_ctrl.dram.rank0.totalEnergy      410050770                       # Total energy per rank (pJ) (Joule)
system.mem_ctrl.dram.rank0.averagePower    557.734152                       # Core power per rank (mW) (Watt)
system.mem_ctrl.dram.rank0.totalIdleTime            0                       # Total Idle time Per DRAM Rank (Tick)
system.mem_ctrl.dram.rank0.pwrStateTime::IDLE     56941906                       # Time in different power states (Tick)
system.mem_ctrl.dram.rank0.pwrStateTime::REF     24440000                       # Time in different power states (Tick)
system.mem_ctrl.dram.rank0.pwrStateTime::SREF            0                       # Time in different power states (Tick)
system.mem_ctrl.dram.rank0.pwrStateTime::PRE_PDN            0                       # Time in different power states (Tick)
system.mem_ctrl.dram.rank0.pwrStateTime::ACT    653826380                       # Time in different power states (Tick)
system.mem_ctrl.dram.rank0.pwrStateTime::ACT_PDN            0                       # Time in different power states (Tick)
system.mem_ctrl.dram.rank1.actEnergy          4598160                       # Energy for activate commands per rank (pJ) (Joule)
system.mem_ctrl.dram.rank1.preEnergy          2428800                       # Energy for precharge commands per rank (pJ) (Joule)
system.mem_ctrl.dram.rank1.readEnergy         9267720                       # Energy for read commands per rank (pJ) (Joule)
system.mem_ctrl.dram.rank1.writeEnergy         876960                       # Energy for write commands per rank (pJ) (Joule)
system.mem_ctrl.dram.rank1.refreshEnergy 57776160.000000                       # Energy for refresh commands per rank (pJ) (Joule)
system.mem_ctrl.dram.rank1.actBackEnergy    299154810                       # Energy for active background per rank (pJ) (Joule)
system.mem_ctrl.dram.rank1.preBackEnergy     30399840                       # Energy for precharge background per rank (pJ) (Joule)
system.mem_ctrl.dram.rank1.actPowerDownEnergy            0                       # Energy for active power-down per rank (pJ) (Joule)
system.mem_ctrl.dram.rank1.prePowerDownEnergy            0                       # Energy for precharge power-down per rank (pJ) (Joule)
system.mem_ctrl.dram.rank1.selfRefreshEnergy            0                       # Energy for self refresh per rank (pJ) (Joule)
system.mem_ctrl.dram.rank1.totalEnergy      404502450                       # Total energy per rank (pJ) (Joule)
system.mem_ctrl.dram.rank1.averagePower    550.187556                       # Core power per rank (mW) (Watt)
system.mem_ctrl.dram.rank1.totalIdleTime            0                       # Total Idle time Per DRAM Rank (Tick)
system.mem_ctrl.dram.rank1.pwrStateTime::IDLE     76532941                       # Time in different power states (Tick)
system.mem_ctrl.dram.rank1.pwrStateTime::REF     24440000                       # Time in different power states (Tick)
system.mem_ctrl.dram.rank1.pwrStateTime::SREF            0                       # Time in different power states (Tick)
system.mem_ctrl.dram.rank1.pwrStateTime::PRE_PDN            0                       # Time in different power states (Tick)
system.mem_ctrl.dram.rank1.pwrStateTime::ACT    634235345                       # Time in different power states (Tick)
system.mem_ctrl.dram.rank1.pwrStateTime::ACT_PDN            0                       # Time in different power states (Tick)
system.mem_ctrl.power_state.pwrStateResidencyTicks::UNDEFINED    735208286                       # Cumulative time (in ticks) in various power states (Tick)
system.membus.transDist::ReadResp                3024                       # Transaction distribution (Count)
system.membus.transDist::WritebackDirty           361                       # Transaction distribution (Count)
system.membus.transDist::CleanEvict              2772                       # Transaction distribution (Count)
system.membus.transDist::UpgradeReq                 1                       # Transaction distribution (Count)
system.membus.transDist::ReadExReq                110                       # Transaction distribution (Count)
system.membus.transDist::ReadExResp               110                       # Transaction distribution (Count)
system.membus.transDist::ReadSharedReq           3023                       # Transaction distribution (Count)
system.membus.pktCount_system.cpu.l1d.mem_side_port::system.mem_ctrl.port         4336                       # Packet count per connected requestor and responder (Count)
system.membus.pktCount_system.cpu.l1d.mem_side_port::total         4336                       # Packet count per connected requestor and responder (Count)
system.membus.pktCount_system.cpu.l1i.mem_side_port::system.mem_ctrl.port         5064                       # Packet count per connected requestor and responder (Count)
system.membus.pktCount_system.cpu.l1i.mem_side_port::total         5064                       # Packet count per connected requestor and responder (Count)
system.membus.pktCount::total                    9400                       # Packet count per connected requestor and responder (Count)
system.membus.pktSize_system.cpu.l1d.mem_side_port::system.mem_ctrl.port       115584                       # Cumulative packet size per connected requestor and responder (Byte)
system.membus.pktSize_system.cpu.l1d.mem_side_port::total       115584                       # Cumulative packet size per connected requestor and responder (Byte)
system.membus.pktSize_system.cpu.l1i.mem_side_port::system.mem_ctrl.port       108032                       # Cumulative packet size per connected requestor and responder (Byte)
system.membus.pktSize_system.cpu.l1i.mem_side_port::total       108032                       # Cumulative packet size per connected requestor and responder (Byte)
system.membus.pktSize::total                   223616                       # Cumulative packet size per connected requestor and responder (Byte)
system.membus.snoops                                1                       # Total snoops (Count)
system.membus.snoopTraffic                         64                       # Total snoop traffic (Byte)
system.membus.snoopFanout::samples               3134                       # Request fanout histogram (Count)
system.membus.snoopFanout::mean              0.004148                       # Request fanout histogram (Count)
system.membus.snoopFanout::stdev             0.064282                       # Request fanout histogram (Count)
system.membus.snoopFanout::underflows               0      0.00%      0.00% # Request fanout histogram (Count)
system.membus.snoopFanout::0                     3121     99.59%     99.59% # Request fanout histogram (Count)
system.membus.snoopFanout::1                       13      0.41%    100.00% # Request fanout histogram (Count)
system.membus.snoopFanout::2                        0      0.00%    100.00% # Request fanout histogram (Count)
system.membus.snoopFanout::overflows                0      0.00%    100.00% # Request fanout histogram (Count)
system.membus.snoopFanout::min_value                0                       # Request fanout histogram (Count)
system.membus.snoopFanout::max_value                1                       # Request fanout histogram (Count)
system.membus.snoopFanout::total                 3134                       # Request fanout histogram (Count)
system.membus.power_state.pwrStateResidencyTicks::UNDEFINED    735208286                       # Cumulative time (in ticks) in various power states (Tick)
system.membus.reqLayer2.occupancy           102810763                       # Layer occupancy (ticks) (Tick)
system.membus.reqLayer2.utilization               0.1                       # Layer utilization (Ratio)
system.membus.respLayer2.occupancy           97744333                       # Layer occupancy (ticks) (Tick)
system.membus.respLayer2.utilization              0.1                       # Layer utilization (Ratio)
system.membus.respLayer3.occupancy          115309302                       # Layer occupancy (ticks) (Tick)
system.membus.respLayer3.utilization              0.2                       # Layer utilization (Ratio)
system.membus.snoop_filter.totRequests           6267                       # Total number of requests made to the snoop filter. (Count)
system.membus.snoop_filter.hitSingleRequests         3135                       # Number of requests hitting in the snoop filter with a single holder of the requested data. (Count)
system.membus.snoop_filter.hitMultiRequests           11                       # Number of requests hitting in the snoop filter with multiple (>1) holders of the requested data. (Count)
system.membus.snoop_filter.totSnoops                0                       # Total number of snoops made to the snoop filter. (Count)
system.membus.snoop_filter.hitSingleSnoops            0                       # Number of snoops hitting in the snoop filter with a single holder of the requested data. (Count)
system.membus.snoop_filter.hitMultiSnoops            0                       # Number of snoops hitting in the snoop filter with multiple (>1) holders of the requested data. (Count)
system.workload.inst.arm                            0                       # number of arm instructions executed (Count)
system.workload.inst.quiesce                        0                       # number of quiesce instructions executed (Count)

---------- End Simulation Statistics   ----------
