
---------- Begin Simulation Statistics ----------
simSeconds                                   2.086669                       # Number of seconds simulated (Second)
simTicks                                 2086668858641                       # Number of ticks simulated (Tick)
finalTick                                2086668858641                       # Number of ticks from beginning of simulation (restored from checkpoints and never reset) (Tick)
simFreq                                  1000000000000                       # The number of ticks per simulated second ((Tick/Second))
hostSeconds                                    535.47                       # Real time elapsed on the host (Second)
hostTickRate                               3896885410                       # The number of ticks simulated per host second (ticks/s) ((Tick/Second))
hostMemory                                    8647924                       # Number of bytes of host memory used (Byte)
simInsts                                     65173846                       # Number of instructions simulated (Count)
simOps                                      108228450                       # Number of ops (including micro ops) simulated (Count)
hostInstRate                                   121713                       # Simulator instruction rate (inst/s) ((Count/Second))
hostOpRate                                     202118                       # Simulator op (including micro ops) rate (op/s) ((Count/Second))
system.clk_domain.clock                         13333                       # Clock period in ticks (Tick)
system.clk_domain.voltage_domain.voltage            1                       # Voltage in Volts (Volt)
system.cpu.numCycles                        156504077                       # Number of cpu cycles simulated (Cycle)
system.cpu.cpi                               2.401333                       # CPI: cycles per instruction (core level) ((Cycle/Count))
system.cpu.ipc                               0.416435                       # IPC: instructions per cycle (core level) ((Count/Cycle))
system.cpu.numWorkItemsStarted                      0                       # Number of work items this cpu started (Count)
system.cpu.numWorkItemsCompleted                    0                       # Number of work items this cpu completed (Count)
system.cpu.branchPred.lookups_0::NoBranch            0                       # Number of BP lookups (Count)
system.cpu.branchPred.lookups_0::Return             0                       # Number of BP lookups (Count)
system.cpu.branchPred.lookups_0::CallDirect            0                       # Number of BP lookups (Count)
system.cpu.branchPred.lookups_0::CallIndirect            0                       # Number of BP lookups (Count)
system.cpu.branchPred.lookups_0::DirectCond            0                       # Number of BP lookups (Count)
system.cpu.branchPred.lookups_0::DirectUncond            0                       # Number of BP lookups (Count)
system.cpu.branchPred.lookups_0::IndirectCond            0                       # Number of BP lookups (Count)
system.cpu.branchPred.lookups_0::IndirectUncond            0                       # Number of BP lookups (Count)
system.cpu.branchPred.lookups_0::total              0                       # Number of BP lookups (Count)
system.cpu.branchPred.squashes_0::NoBranch            0                       # Number of branches that got squashed (completely removed) as an earlier branch was mispredicted. (Count)
system.cpu.branchPred.squashes_0::Return            0                       # Number of branches that got squashed (completely removed) as an earlier branch was mispredicted. (Count)
system.cpu.branchPred.squashes_0::CallDirect            0                       # Number of branches that got squashed (completely removed) as an earlier branch was mispredicted. (Count)
system.cpu.branchPred.squashes_0::CallIndirect            0                       # Number of branches that got squashed (completely removed) as an earlier branch was mispredicted. (Count)
system.cpu.branchPred.squashes_0::DirectCond            0                       # Number of branches that got squashed (completely removed) as an earlier branch was mispredicted. (Count)
system.cpu.branchPred.squashes_0::DirectUncond            0                       # Number of branches that got squashed (completely removed) as an earlier branch was mispredicted. (Count)
system.cpu.branchPred.squashes_0::IndirectCond            0                       # Number of branches that got squashed (completely removed) as an earlier branch was mispredicted. (Count)
system.cpu.branchPred.squashes_0::IndirectUncond            0                       # Number of branches that got squashed (completely removed) as an earlier branch was mispredicted. (Count)
system.cpu.branchPred.squashes_0::total             0                       # Number of branches that got squashed (completely removed) as an earlier branch was mispredicted. (Count)
system.cpu.branchPred.corrected_0::NoBranch            0                       # Number of branches that got corrected but not yet commited. Branches get corrected by decode or after execute. Also a branch misprediction can be detected out-of-order. Therefore, a corrected branch might not end up beeing committed in case an even earlier branch was mispredicted (Count)
system.cpu.branchPred.corrected_0::Return            0                       # Number of branches that got corrected but not yet commited. Branches get corrected by decode or after execute. Also a branch misprediction can be detected out-of-order. Therefore, a corrected branch might not end up beeing committed in case an even earlier branch was mispredicted (Count)
system.cpu.branchPred.corrected_0::CallDirect            0                       # Number of branches that got corrected but not yet commited. Branches get corrected by decode or after execute. Also a branch misprediction can be detected out-of-order. Therefore, a corrected branch might not end up beeing committed in case an even earlier branch was mispredicted (Count)
system.cpu.branchPred.corrected_0::CallIndirect            0                       # Number of branches that got corrected but not yet commited. Branches get corrected by decode or after execute. Also a branch misprediction can be detected out-of-order. Therefore, a corrected branch might not end up beeing committed in case an even earlier branch was mispredicted (Count)
system.cpu.branchPred.corrected_0::DirectCond            0                       # Number of branches that got corrected but not yet commited. Branches get corrected by decode or after execute. Also a branch misprediction can be detected out-of-order. Therefore, a corrected branch might not end up beeing committed in case an even earlier branch was mispredicted (Count)
system.cpu.branchPred.corrected_0::DirectUncond            0                       # Number of branches that got corrected but not yet commited. Branches get corrected by decode or after execute. Also a branch misprediction can be detected out-of-order. Therefore, a corrected branch might not end up beeing committed in case an even earlier branch was mispredicted (Count)
system.cpu.branchPred.corrected_0::IndirectCond            0                       # Number of branches that got corrected but not yet commited. Branches get corrected by decode or after execute. Also a branch misprediction can be detected out-of-order. Therefore, a corrected branch might not end up beeing committed in case an even earlier branch was mispredicted (Count)
system.cpu.branchPred.corrected_0::IndirectUncond            0                       # Number of branches that got corrected but not yet commited. Branches get corrected by decode or after execute. Also a branch misprediction can be detected out-of-order. Therefore, a corrected branch might not end up beeing committed in case an even earlier branch was mispredicted (Count)
system.cpu.branchPred.corrected_0::total            0                       # Number of branches that got corrected but not yet commited. Branches get corrected by decode or after execute. Also a branch misprediction can be detected out-of-order. Therefore, a corrected branch might not end up beeing committed in case an even earlier branch was mispredicted (Count)
system.cpu.branchPred.earlyResteers_0::NoBranch            0                       # Number of branches that got redirected after decode. (Count)
system.cpu.branchPred.earlyResteers_0::Return            0                       # Number of branches that got redirected after decode. (Count)
system.cpu.branchPred.earlyResteers_0::CallDirect            0                       # Number of branches that got redirected after decode. (Count)
system.cpu.branchPred.earlyResteers_0::CallIndirect            0                       # Number of branches that got redirected after decode. (Count)
system.cpu.branchPred.earlyResteers_0::DirectCond            0                       # Number of branches that got redirected after decode. (Count)
system.cpu.branchPred.earlyResteers_0::DirectUncond            0                       # Number of branches that got redirected after decode. (Count)
system.cpu.branchPred.earlyResteers_0::IndirectCond            0                       # Number of branches that got redirected after decode. (Count)
system.cpu.branchPred.earlyResteers_0::IndirectUncond            0                       # Number of branches that got redirected after decode. (Count)
system.cpu.branchPred.earlyResteers_0::total            0                       # Number of branches that got redirected after decode. (Count)
system.cpu.branchPred.committed_0::NoBranch            0                       # Number of branches finally committed  (Count)
system.cpu.branchPred.committed_0::Return            0                       # Number of branches finally committed  (Count)
system.cpu.branchPred.committed_0::CallDirect            0                       # Number of branches finally committed  (Count)
system.cpu.branchPred.committed_0::CallIndirect            0                       # Number of branches finally committed  (Count)
system.cpu.branchPred.committed_0::DirectCond            0                       # Number of branches finally committed  (Count)
system.cpu.branchPred.committed_0::DirectUncond            0                       # Number of branches finally committed  (Count)
system.cpu.branchPred.committed_0::IndirectCond            0                       # Number of branches finally committed  (Count)
system.cpu.branchPred.committed_0::IndirectUncond            0                       # Number of branches finally committed  (Count)
system.cpu.branchPred.committed_0::total            0                       # Number of branches finally committed  (Count)
system.cpu.branchPred.mispredicted_0::NoBranch            0                       # Number of committed branches that were mispredicted. (Count)
system.cpu.branchPred.mispredicted_0::Return            0                       # Number of committed branches that were mispredicted. (Count)
system.cpu.branchPred.mispredicted_0::CallDirect            0                       # Number of committed branches that were mispredicted. (Count)
system.cpu.branchPred.mispredicted_0::CallIndirect            0                       # Number of committed branches that were mispredicted. (Count)
system.cpu.branchPred.mispredicted_0::DirectCond            0                       # Number of committed branches that were mispredicted. (Count)
system.cpu.branchPred.mispredicted_0::DirectUncond            0                       # Number of committed branches that were mispredicted. (Count)
system.cpu.branchPred.mispredicted_0::IndirectCond            0                       # Number of committed branches that were mispredicted. (Count)
system.cpu.branchPred.mispredicted_0::IndirectUncond            0                       # Number of committed branches that were mispredicted. (Count)
system.cpu.branchPred.mispredicted_0::total            0                       # Number of committed branches that were mispredicted. (Count)
system.cpu.branchPred.targetProvider_0::NoTarget            0                       # The component providing the target for taken branches (Count)
system.cpu.branchPred.targetProvider_0::BTB            0                       # The component providing the target for taken branches (Count)
system.cpu.branchPred.targetProvider_0::RAS            0                       # The component providing the target for taken branches (Count)
system.cpu.branchPred.targetProvider_0::Indirect            0                       # The component providing the target for taken branches (Count)
system.cpu.branchPred.targetProvider_0::total            0                       # The component providing the target for taken branches (Count)
system.cpu.branchPred.targetWrong_0::NoBranch            0                       # Number of branches where the target was incorrect or not available at prediction time. (Count)
system.cpu.branchPred.targetWrong_0::Return            0                       # Number of branches where the target was incorrect or not available at prediction time. (Count)
system.cpu.branchPred.targetWrong_0::CallDirect            0                       # Number of branches where the target was incorrect or not available at prediction time. (Count)
system.cpu.branchPred.targetWrong_0::CallIndirect            0                       # Number of branches where the target was incorrect or not available at prediction time. (Count)
system.cpu.branchPred.targetWrong_0::DirectCond            0                       # Number of branches where the target was incorrect or not available at prediction time. (Count)
system.cpu.branchPred.targetWrong_0::DirectUncond            0                       # Number of branches where the target was incorrect or not available at prediction time. (Count)
system.cpu.branchPred.targetWrong_0::IndirectCond            0                       # Number of branches where the target was incorrect or not available at prediction time. (Count)
system.cpu.branchPred.targetWrong_0::IndirectUncond            0                       # Number of branches where the target was incorrect or not available at prediction time. (Count)
system.cpu.branchPred.targetWrong_0::total            0                       # Number of branches where the target was incorrect or not available at prediction time. (Count)
system.cpu.branchPred.condPredicted                 0                       # Number of conditional branches predicted (Count)
system.cpu.branchPred.condPredictedTaken            0                       # Number of conditional branches predicted as taken (Count)
system.cpu.branchPred.condIncorrect                 0                       # Number of conditional branches incorrect (Count)
system.cpu.branchPred.predTakenBTBMiss              0                       # Number of branches predicted taken but missed in BTB (Count)
system.cpu.branchPred.NotTakenMispredicted            0                       # Number branches predicted 'not taken' but turned out to be taken (Count)
system.cpu.branchPred.TakenMispredicted             0                       # Number branches predicted taken but are actually not taken (Count)
system.cpu.branchPred.BTBLookups                    0                       # Number of BTB lookups (Count)
system.cpu.branchPred.BTBUpdates                    0                       # Number of BTB updates (Count)
system.cpu.branchPred.BTBHits                       0                       # Number of BTB hits (Count)
system.cpu.branchPred.BTBHitRatio                 nan                       # BTB Hit Ratio (Ratio)
system.cpu.branchPred.BTBMispredicted               0                       # Number BTB mispredictions. No target found or target wrong (Count)
system.cpu.branchPred.indirectLookups               0                       # Number of indirect predictor lookups. (Count)
system.cpu.branchPred.indirectHits                  0                       # Number of indirect target hits. (Count)
system.cpu.branchPred.indirectMisses                0                       # Number of indirect misses. (Count)
system.cpu.branchPred.indirectMispredicted            0                       # Number of mispredicted indirect branches. (Count)
system.cpu.branchPred.btb.lookups::NoBranch            0                       # Number of BTB lookups (Count)
system.cpu.branchPred.btb.lookups::Return            0                       # Number of BTB lookups (Count)
system.cpu.branchPred.btb.lookups::CallDirect            0                       # Number of BTB lookups (Count)
system.cpu.branchPred.btb.lookups::CallIndirect            0                       # Number of BTB lookups (Count)
system.cpu.branchPred.btb.lookups::DirectCond            0                       # Number of BTB lookups (Count)
system.cpu.branchPred.btb.lookups::DirectUncond            0                       # Number of BTB lookups (Count)
system.cpu.branchPred.btb.lookups::IndirectCond            0                       # Number of BTB lookups (Count)
system.cpu.branchPred.btb.lookups::IndirectUncond            0                       # Number of BTB lookups (Count)
system.cpu.branchPred.btb.lookups::total            0                       # Number of BTB lookups (Count)
system.cpu.branchPred.btb.misses::NoBranch            0                       # Number of BTB misses (Count)
system.cpu.branchPred.btb.misses::Return            0                       # Number of BTB misses (Count)
system.cpu.branchPred.btb.misses::CallDirect            0                       # Number of BTB misses (Count)
system.cpu.branchPred.btb.misses::CallIndirect            0                       # Number of BTB misses (Count)
system.cpu.branchPred.btb.misses::DirectCond            0                       # Number of BTB misses (Count)
system.cpu.branchPred.btb.misses::DirectUncond            0                       # Number of BTB misses (Count)
system.cpu.branchPred.btb.misses::IndirectCond            0                       # Number of BTB misses (Count)
system.cpu.branchPred.btb.misses::IndirectUncond            0                       # Number of BTB misses (Count)
system.cpu.branchPred.btb.misses::total             0                       # Number of BTB misses (Count)
system.cpu.branchPred.btb.updates::NoBranch            0                       # Number of BTB updates (Count)
system.cpu.branchPred.btb.updates::Return            0                       # Number of BTB updates (Count)
system.cpu.branchPred.btb.updates::CallDirect            0                       # Number of BTB updates (Count)
system.cpu.branchPred.btb.updates::CallIndirect            0                       # Number of BTB updates (Count)
system.cpu.branchPred.btb.updates::DirectCond            0                       # Number of BTB updates (Count)
system.cpu.branchPred.btb.updates::DirectUncond            0                       # Number of BTB updates (Count)
system.cpu.branchPred.btb.updates::IndirectCond            0                       # Number of BTB updates (Count)
system.cpu.branchPred.btb.updates::IndirectUncond            0                       # Number of BTB updates (Count)
system.cpu.branchPred.btb.updates::total            0                       # Number of BTB updates (Count)
system.cpu.branchPred.btb.mispredict::NoBranch            0                       # Number of BTB mispredictions. No target found or target wrong. (Count)
system.cpu.branchPred.btb.mispredict::Return            0                       # Number of BTB mispredictions. No target found or target wrong. (Count)
system.cpu.branchPred.btb.mispredict::CallDirect            0                       # Number of BTB mispredictions. No target found or target wrong. (Count)
system.cpu.branchPred.btb.mispredict::CallIndirect            0                       # Number of BTB mispredictions. No target found or target wrong. (Count)
system.cpu.branchPred.btb.mispredict::DirectCond            0                       # Number of BTB mispredictions. No target found or target wrong. (Count)
system.cpu.branchPred.btb.mispredict::DirectUncond            0                       # Number of BTB mispredictions. No target found or target wrong. (Count)
system.cpu.branchPred.btb.mispredict::IndirectCond            0                       # Number of BTB mispredictions. No target found or target wrong. (Count)
system.cpu.branchPred.btb.mispredict::IndirectUncond            0                       # Number of BTB mispredictions. No target found or target wrong. (Count)
system.cpu.branchPred.btb.mispredict::total            0                       # Number of BTB mispredictions. No target found or target wrong. (Count)
system.cpu.branchPred.btb.power_state.pwrStateResidencyTicks::UNDEFINED 2086668858641                       # Cumulative time (in ticks) in various power states (Tick)
system.cpu.branchPred.indirectBranchPred.lookups            0                       # Number of lookups (Count)
system.cpu.branchPred.indirectBranchPred.hits            0                       # Number of hits of a tag (Count)
system.cpu.branchPred.indirectBranchPred.misses            0                       # Number of misses (Count)
system.cpu.branchPred.indirectBranchPred.targetRecords            0                       # Number of targets that where recorded/installed in the cache (Count)
system.cpu.branchPred.indirectBranchPred.indirectRecords            0                       # Number of indirect branches/calls recorded in the indirect hist (Count)
system.cpu.branchPred.indirectBranchPred.speculativeOverflows            0                       # Number of times more than the allowed capacity for speculative branches/calls where in flight and destroy the path history (Count)
system.cpu.branchPred.ras.pushes                    0                       # Number of times a PC was pushed onto the RAS (Count)
system.cpu.branchPred.ras.pops                      0                       # Number of times a PC was poped from the RAS (Count)
system.cpu.branchPred.ras.squashes                  0                       # Number of times the stack operation was squashed due to wrong speculation. (Count)
system.cpu.branchPred.ras.used                      0                       # Number of times the RAS is the provider (Count)
system.cpu.branchPred.ras.correct                   0                       # Number of times the RAS is the provider and the prediction is correct (Count)
system.cpu.branchPred.ras.incorrect                 0                       # Number of times the RAS is the provider and the prediction is wrong (Count)
system.cpu.commitStats0.numInsts             65173846                       # Number of instructions committed (thread level) (Count)
system.cpu.commitStats0.numOps              108228450                       # Number of ops (including micro ops) committed (thread level) (Count)
system.cpu.commitStats0.numInstsNotNOP              0                       # Number of instructions committed excluding NOPs or prefetches (Count)
system.cpu.commitStats0.numOpsNotNOP                0                       # Number of Ops (including micro ops) Simulated (Count)
system.cpu.commitStats0.cpi                  2.401333                       # CPI: cycles per instruction (thread level) ((Cycle/Count))
system.cpu.commitStats0.ipc                  0.416435                       # IPC: instructions per cycle (thread level) ((Count/Cycle))
system.cpu.commitStats0.numMemRefs                  0                       # Number of memory references committed (Count)
system.cpu.commitStats0.numFpInsts                  0                       # Number of float instructions (Count)
system.cpu.commitStats0.numIntInsts                 0                       # Number of integer instructions (Count)
system.cpu.commitStats0.numLoadInsts                0                       # Number of load instructions (Count)
system.cpu.commitStats0.numStoreInsts               0                       # Number of store instructions (Count)
system.cpu.commitStats0.numVecInsts                 0                       # Number of vector instructions (Count)
system.cpu.commitStats0.committedInstType::No_OpClass      2119287      1.96%      1.96% # Class of committed instruction. (Count)
system.cpu.commitStats0.committedInstType::IntAlu     83647409     77.29%     79.25% # Class of committed instruction. (Count)
system.cpu.commitStats0.committedInstType::IntMult        30815      0.03%     79.27% # Class of committed instruction. (Count)
system.cpu.commitStats0.committedInstType::IntDiv        39630      0.04%     79.31% # Class of committed instruction. (Count)
system.cpu.commitStats0.committedInstType::FloatAdd        37503      0.03%     79.35% # Class of committed instruction. (Count)
system.cpu.commitStats0.committedInstType::FloatCmp            0      0.00%     79.35% # Class of committed instruction. (Count)
system.cpu.commitStats0.committedInstType::FloatCvt         1312      0.00%     79.35% # Class of committed instruction. (Count)
system.cpu.commitStats0.committedInstType::FloatMult            0      0.00%     79.35% # Class of committed instruction. (Count)
system.cpu.commitStats0.committedInstType::FloatMultAcc            0      0.00%     79.35% # Class of committed instruction. (Count)
system.cpu.commitStats0.committedInstType::FloatDiv            0      0.00%     79.35% # Class of committed instruction. (Count)
system.cpu.commitStats0.committedInstType::FloatMisc            0      0.00%     79.35% # Class of committed instruction. (Count)
system.cpu.commitStats0.committedInstType::FloatSqrt            0      0.00%     79.35% # Class of committed instruction. (Count)
system.cpu.commitStats0.committedInstType::SimdAdd         6606      0.01%     79.35% # Class of committed instruction. (Count)
system.cpu.commitStats0.committedInstType::SimdAddAcc            0      0.00%     79.35% # Class of committed instruction. (Count)
system.cpu.commitStats0.committedInstType::SimdAlu       114257      0.11%     79.46% # Class of committed instruction. (Count)
system.cpu.commitStats0.committedInstType::SimdCmp            6      0.00%     79.46% # Class of committed instruction. (Count)
system.cpu.commitStats0.committedInstType::SimdCvt        33894      0.03%     79.49% # Class of committed instruction. (Count)
system.cpu.commitStats0.committedInstType::SimdMisc        43821      0.04%     79.53% # Class of committed instruction. (Count)
system.cpu.commitStats0.committedInstType::SimdMult            0      0.00%     79.53% # Class of committed instruction. (Count)
system.cpu.commitStats0.committedInstType::SimdMultAcc            0      0.00%     79.53% # Class of committed instruction. (Count)
system.cpu.commitStats0.committedInstType::SimdMatMultAcc            0      0.00%     79.53% # Class of committed instruction. (Count)
system.cpu.commitStats0.committedInstType::SimdShift         1828      0.00%     79.53% # Class of committed instruction. (Count)
system.cpu.commitStats0.committedInstType::SimdShiftAcc            0      0.00%     79.53% # Class of committed instruction. (Count)
system.cpu.commitStats0.committedInstType::SimdDiv            0      0.00%     79.53% # Class of committed instruction. (Count)
system.cpu.commitStats0.committedInstType::SimdSqrt            0      0.00%     79.53% # Class of committed instruction. (Count)
system.cpu.commitStats0.committedInstType::SimdFloatAdd        10103      0.01%     79.54% # Class of committed instruction. (Count)
system.cpu.commitStats0.committedInstType::SimdFloatAlu            0      0.00%     79.54% # Class of committed instruction. (Count)
system.cpu.commitStats0.committedInstType::SimdFloatCmp            0      0.00%     79.54% # Class of committed instruction. (Count)
system.cpu.commitStats0.committedInstType::SimdFloatCvt        20206      0.02%     79.56% # Class of committed instruction. (Count)
system.cpu.commitStats0.committedInstType::SimdFloatDiv        10103      0.01%     79.57% # Class of committed instruction. (Count)
system.cpu.commitStats0.committedInstType::SimdFloatMisc            0      0.00%     79.57% # Class of committed instruction. (Count)
system.cpu.commitStats0.committedInstType::SimdFloatMult            0      0.00%     79.57% # Class of committed instruction. (Count)
system.cpu.commitStats0.committedInstType::SimdFloatMultAcc            0      0.00%     79.57% # Class of committed instruction. (Count)
system.cpu.commitStats0.committedInstType::SimdFloatMatMultAcc            0      0.00%     79.57% # Class of committed instruction. (Count)
system.cpu.commitStats0.committedInstType::SimdFloatSqrt            0      0.00%     79.57% # Class of committed instruction. (Count)
system.cpu.commitStats0.committedInstType::SimdReduceAdd            0      0.00%     79.57% # Class of committed instruction. (Count)
system.cpu.commitStats0.committedInstType::SimdReduceAlu            0      0.00%     79.57% # Class of committed instruction. (Count)
system.cpu.commitStats0.committedInstType::SimdReduceCmp            0      0.00%     79.57% # Class of committed instruction. (Count)
system.cpu.commitStats0.committedInstType::SimdFloatReduceAdd            0      0.00%     79.57% # Class of committed instruction. (Count)
system.cpu.commitStats0.committedInstType::SimdFloatReduceCmp            0      0.00%     79.57% # Class of committed instruction. (Count)
system.cpu.commitStats0.committedInstType::SimdAes            0      0.00%     79.57% # Class of committed instruction. (Count)
system.cpu.commitStats0.committedInstType::SimdAesMix            0      0.00%     79.57% # Class of committed instruction. (Count)
system.cpu.commitStats0.committedInstType::SimdSha1Hash            0      0.00%     79.57% # Class of committed instruction. (Count)
system.cpu.commitStats0.committedInstType::SimdSha1Hash2            0      0.00%     79.57% # Class of committed instruction. (Count)
system.cpu.commitStats0.committedInstType::SimdSha256Hash            0      0.00%     79.57% # Class of committed instruction. (Count)
system.cpu.commitStats0.committedInstType::SimdSha256Hash2            0      0.00%     79.57% # Class of committed instruction. (Count)
system.cpu.commitStats0.committedInstType::SimdShaSigma2            0      0.00%     79.57% # Class of committed instruction. (Count)
system.cpu.commitStats0.committedInstType::SimdShaSigma3            0      0.00%     79.57% # Class of committed instruction. (Count)
system.cpu.commitStats0.committedInstType::SimdPredAlu            0      0.00%     79.57% # Class of committed instruction. (Count)
system.cpu.commitStats0.committedInstType::Matrix            0      0.00%     79.57% # Class of committed instruction. (Count)
system.cpu.commitStats0.committedInstType::MatrixMov            0      0.00%     79.57% # Class of committed instruction. (Count)
system.cpu.commitStats0.committedInstType::MatrixOP            0      0.00%     79.57% # Class of committed instruction. (Count)
system.cpu.commitStats0.committedInstType::MemRead     13691162     12.65%     92.22% # Class of committed instruction. (Count)
system.cpu.commitStats0.committedInstType::MemWrite      8276769      7.65%     99.87% # Class of committed instruction. (Count)
system.cpu.commitStats0.committedInstType::FloatMemRead        98456      0.09%     99.96% # Class of committed instruction. (Count)
system.cpu.commitStats0.committedInstType::FloatMemWrite        45283      0.04%    100.00% # Class of committed instruction. (Count)
system.cpu.commitStats0.committedInstType::IprAccess            0      0.00%    100.00% # Class of committed instruction. (Count)
system.cpu.commitStats0.committedInstType::InstPrefetch            0      0.00%    100.00% # Class of committed instruction. (Count)
system.cpu.commitStats0.committedInstType::SimdUnitStrideLoad            0      0.00%    100.00% # Class of committed instruction. (Count)
system.cpu.commitStats0.committedInstType::SimdUnitStrideStore            0      0.00%    100.00% # Class of committed instruction. (Count)
system.cpu.commitStats0.committedInstType::SimdUnitStrideMaskLoad            0      0.00%    100.00% # Class of committed instruction. (Count)
system.cpu.commitStats0.committedInstType::SimdUnitStrideMaskStore            0      0.00%    100.00% # Class of committed instruction. (Count)
system.cpu.commitStats0.committedInstType::SimdStridedLoad            0      0.00%    100.00% # Class of committed instruction. (Count)
system.cpu.commitStats0.committedInstType::SimdStridedStore            0      0.00%    100.00% # Class of committed instruction. (Count)
system.cpu.commitStats0.committedInstType::SimdIndexedLoad            0      0.00%    100.00% # Class of committed instruction. (Count)
system.cpu.commitStats0.committedInstType::SimdIndexedStore            0      0.00%    100.00% # Class of committed instruction. (Count)
system.cpu.commitStats0.committedInstType::SimdWholeRegisterLoad            0      0.00%    100.00% # Class of committed instruction. (Count)
system.cpu.commitStats0.committedInstType::SimdWholeRegisterStore            0      0.00%    100.00% # Class of committed instruction. (Count)
system.cpu.commitStats0.committedInstType::SimdUnitStrideFaultOnlyFirstLoad            0      0.00%    100.00% # Class of committed instruction. (Count)
system.cpu.commitStats0.committedInstType::SimdUnitStrideSegmentedLoad            0      0.00%    100.00% # Class of committed instruction. (Count)
system.cpu.commitStats0.committedInstType::SimdUnitStrideSegmentedStore            0      0.00%    100.00% # Class of committed instruction. (Count)
system.cpu.commitStats0.committedInstType::SimdExt            0      0.00%    100.00% # Class of committed instruction. (Count)
system.cpu.commitStats0.committedInstType::SimdFloatExt            0      0.00%    100.00% # Class of committed instruction. (Count)
system.cpu.commitStats0.committedInstType::SimdConfig            0      0.00%    100.00% # Class of committed instruction. (Count)
system.cpu.commitStats0.committedInstType::total    108228450                       # Class of committed instruction. (Count)
system.cpu.executeStats0.numInsts                   0                       # Number of executed instructions (Count)
system.cpu.executeStats0.numNop                     0                       # Number of nop insts executed (Count)
system.cpu.executeStats0.numBranches                0                       # Number of branches executed (Count)
system.cpu.executeStats0.numLoadInsts               0                       # Number of load instructions executed (Count)
system.cpu.executeStats0.numStoreInsts              0                       # Number of stores executed (Count)
system.cpu.executeStats0.instRate                   0                       # Inst execution rate ((Count/Cycle))
system.cpu.executeStats0.numFpRegWrites             0                       # Number of times the floating registers were written (Count)
system.cpu.executeStats0.numMemRefs                 0                       # Number of memory refs (Count)
system.cpu.executeStats0.numVecAluAccesses            0                       # Number of vector alu accesses (Count)
system.cpu.executeStats0.numDiscardedOps     35466553                       # Number of ops (including micro ops) which were discarded before commit (Count)
system.cpu.fetch2.intInstructions                  92                       # Number of integer instructions successfully decoded (Count)
system.cpu.fetch2.fpInstructions                    0                       # Number of floating point instructions successfully decoded (Count)
system.cpu.fetch2.vecInstructions                   0                       # Number of SIMD instructions successfully decoded (Count)
system.cpu.fetch2.loadInstructions                  0                       # Number of memory load instructions successfully decoded (Count)
system.cpu.fetch2.storeInstructions                 0                       # Number of memory store instructions successfully decoded (Count)
system.cpu.fetch2.amoInstructions                   0                       # Number of memory atomic instructions successfully decoded (Count)
system.cpu.fetchStats0.numInsts                     0                       # Number of instructions fetched (thread level) (Count)
system.cpu.fetchStats0.numOps                       0                       # Number of ops (including micro ops) fetched (thread level) (Count)
system.cpu.fetchStats0.fetchRate                    0                       # Number of inst fetches per cycle ((Count/Cycle))
system.cpu.fetchStats0.branchRate                   0                       # Number of branch fetches per cycle (Ratio)
system.cpu.fetchStats0.numFetchSuspends             0                       # Number of times Execute suspended instruction fetching (Count)
system.cpu.interrupts.clk_domain.clock         213328                       # Clock period in ticks (Tick)
system.cpu.l1d.demandHits::cpu.data          25870138                       # number of demand (read+write) hits (Count)
system.cpu.l1d.demandHits::total             25870138                       # number of demand (read+write) hits (Count)
system.cpu.l1d.overallHits::cpu.data         25870139                       # number of overall hits (Count)
system.cpu.l1d.overallHits::total            25870139                       # number of overall hits (Count)
system.cpu.l1d.demandMisses::cpu.data           79192                       # number of demand (read+write) misses (Count)
system.cpu.l1d.demandMisses::total              79192                       # number of demand (read+write) misses (Count)
system.cpu.l1d.overallMisses::cpu.data          79193                       # number of overall misses (Count)
system.cpu.l1d.overallMisses::total             79193                       # number of overall misses (Count)
system.cpu.l1d.demandMissLatency::cpu.data  16554106137                       # number of demand (read+write) miss ticks (Tick)
system.cpu.l1d.demandMissLatency::total   16554106137                       # number of demand (read+write) miss ticks (Tick)
system.cpu.l1d.overallMissLatency::cpu.data  16554106137                       # number of overall miss ticks (Tick)
system.cpu.l1d.overallMissLatency::total  16554106137                       # number of overall miss ticks (Tick)
system.cpu.l1d.demandAccesses::cpu.data      25949330                       # number of demand (read+write) accesses (Count)
system.cpu.l1d.demandAccesses::total         25949330                       # number of demand (read+write) accesses (Count)
system.cpu.l1d.overallAccesses::cpu.data     25949332                       # number of overall (read+write) accesses (Count)
system.cpu.l1d.overallAccesses::total        25949332                       # number of overall (read+write) accesses (Count)
system.cpu.l1d.demandMissRate::cpu.data      0.003052                       # miss rate for demand accesses (Ratio)
system.cpu.l1d.demandMissRate::total         0.003052                       # miss rate for demand accesses (Ratio)
system.cpu.l1d.overallMissRate::cpu.data     0.003052                       # miss rate for overall accesses (Ratio)
system.cpu.l1d.overallMissRate::total        0.003052                       # miss rate for overall accesses (Ratio)
system.cpu.l1d.demandAvgMissLatency::cpu.data 209037.606539                       # average overall miss latency in ticks ((Tick/Count))
system.cpu.l1d.demandAvgMissLatency::total 209037.606539                       # average overall miss latency in ticks ((Tick/Count))
system.cpu.l1d.overallAvgMissLatency::cpu.data 209034.966942                       # average overall miss latency ((Tick/Count))
system.cpu.l1d.overallAvgMissLatency::total 209034.966942                       # average overall miss latency ((Tick/Count))
system.cpu.l1d.blockedCycles::no_mshrs              0                       # number of cycles access was blocked (Cycle)
system.cpu.l1d.blockedCycles::no_targets            0                       # number of cycles access was blocked (Cycle)
system.cpu.l1d.blockedCauses::no_mshrs              0                       # number of times access was blocked (Count)
system.cpu.l1d.blockedCauses::no_targets            0                       # number of times access was blocked (Count)
system.cpu.l1d.avgBlocked::no_mshrs               nan                       # average number of cycles each access was blocked ((Cycle/Count))
system.cpu.l1d.avgBlocked::no_targets             nan                       # average number of cycles each access was blocked ((Cycle/Count))
system.cpu.l1d.writebacks::writebacks           23255                       # number of writebacks (Count)
system.cpu.l1d.writebacks::total                23255                       # number of writebacks (Count)
system.cpu.l1d.demandMshrHits::cpu.data          1741                       # number of demand (read+write) MSHR hits (Count)
system.cpu.l1d.demandMshrHits::total             1741                       # number of demand (read+write) MSHR hits (Count)
system.cpu.l1d.overallMshrHits::cpu.data         1741                       # number of overall MSHR hits (Count)
system.cpu.l1d.overallMshrHits::total            1741                       # number of overall MSHR hits (Count)
system.cpu.l1d.demandMshrMisses::cpu.data        77451                       # number of demand (read+write) MSHR misses (Count)
system.cpu.l1d.demandMshrMisses::total          77451                       # number of demand (read+write) MSHR misses (Count)
system.cpu.l1d.overallMshrMisses::cpu.data        77452                       # number of overall MSHR misses (Count)
system.cpu.l1d.overallMshrMisses::total         77452                       # number of overall MSHR misses (Count)
system.cpu.l1d.demandMshrMissLatency::cpu.data  15156007757                       # number of demand (read+write) MSHR miss ticks (Tick)
system.cpu.l1d.demandMshrMissLatency::total  15156007757                       # number of demand (read+write) MSHR miss ticks (Tick)
system.cpu.l1d.overallMshrMissLatency::cpu.data  15156207752                       # number of overall MSHR miss ticks (Tick)
system.cpu.l1d.overallMshrMissLatency::total  15156207752                       # number of overall MSHR miss ticks (Tick)
system.cpu.l1d.demandMshrMissRate::cpu.data     0.002985                       # mshr miss ratio for demand accesses (Ratio)
system.cpu.l1d.demandMshrMissRate::total     0.002985                       # mshr miss ratio for demand accesses (Ratio)
system.cpu.l1d.overallMshrMissRate::cpu.data     0.002985                       # mshr miss ratio for overall accesses (Ratio)
system.cpu.l1d.overallMshrMissRate::total     0.002985                       # mshr miss ratio for overall accesses (Ratio)
system.cpu.l1d.demandAvgMshrMissLatency::cpu.data 195685.113904                       # average overall mshr miss latency ((Tick/Count))
system.cpu.l1d.demandAvgMshrMissLatency::total 195685.113904                       # average overall mshr miss latency ((Tick/Count))
system.cpu.l1d.overallAvgMshrMissLatency::cpu.data 195685.169550                       # average overall mshr miss latency ((Tick/Count))
system.cpu.l1d.overallAvgMshrMissLatency::total 195685.169550                       # average overall mshr miss latency ((Tick/Count))
system.cpu.l1d.replacements                     77258                       # number of replacements (Count)
system.cpu.l1d.LockedRMWReadReq.hits::cpu.data          856                       # number of LockedRMWReadReq hits (Count)
system.cpu.l1d.LockedRMWReadReq.hits::total          856                       # number of LockedRMWReadReq hits (Count)
system.cpu.l1d.LockedRMWReadReq.misses::cpu.data           62                       # number of LockedRMWReadReq misses (Count)
system.cpu.l1d.LockedRMWReadReq.misses::total           62                       # number of LockedRMWReadReq misses (Count)
system.cpu.l1d.LockedRMWReadReq.missLatency::cpu.data     13066340                       # number of LockedRMWReadReq miss ticks (Tick)
system.cpu.l1d.LockedRMWReadReq.missLatency::total     13066340                       # number of LockedRMWReadReq miss ticks (Tick)
system.cpu.l1d.LockedRMWReadReq.accesses::cpu.data          918                       # number of LockedRMWReadReq accesses(hits+misses) (Count)
system.cpu.l1d.LockedRMWReadReq.accesses::total          918                       # number of LockedRMWReadReq accesses(hits+misses) (Count)
system.cpu.l1d.LockedRMWReadReq.missRate::cpu.data     0.067538                       # miss rate for LockedRMWReadReq accesses (Ratio)
system.cpu.l1d.LockedRMWReadReq.missRate::total     0.067538                       # miss rate for LockedRMWReadReq accesses (Ratio)
system.cpu.l1d.LockedRMWReadReq.avgMissLatency::cpu.data 210747.419355                       # average LockedRMWReadReq miss latency ((Tick/Count))
system.cpu.l1d.LockedRMWReadReq.avgMissLatency::total 210747.419355                       # average LockedRMWReadReq miss latency ((Tick/Count))
system.cpu.l1d.LockedRMWReadReq.mshrMisses::cpu.data           62                       # number of LockedRMWReadReq MSHR misses (Count)
system.cpu.l1d.LockedRMWReadReq.mshrMisses::total           62                       # number of LockedRMWReadReq MSHR misses (Count)
system.cpu.l1d.LockedRMWReadReq.mshrMissLatency::cpu.data     62118447                       # number of LockedRMWReadReq MSHR miss ticks (Tick)
system.cpu.l1d.LockedRMWReadReq.mshrMissLatency::total     62118447                       # number of LockedRMWReadReq MSHR miss ticks (Tick)
system.cpu.l1d.LockedRMWReadReq.mshrMissRate::cpu.data     0.067538                       # mshr miss rate for LockedRMWReadReq accesses (Ratio)
system.cpu.l1d.LockedRMWReadReq.mshrMissRate::total     0.067538                       # mshr miss rate for LockedRMWReadReq accesses (Ratio)
system.cpu.l1d.LockedRMWReadReq.avgMshrMissLatency::cpu.data 1001910.435484                       # average LockedRMWReadReq mshr miss latency ((Tick/Count))
system.cpu.l1d.LockedRMWReadReq.avgMshrMissLatency::total 1001910.435484                       # average LockedRMWReadReq mshr miss latency ((Tick/Count))
system.cpu.l1d.LockedRMWWriteReq.hits::cpu.data          918                       # number of LockedRMWWriteReq hits (Count)
system.cpu.l1d.LockedRMWWriteReq.hits::total          918                       # number of LockedRMWWriteReq hits (Count)
system.cpu.l1d.LockedRMWWriteReq.accesses::cpu.data          918                       # number of LockedRMWWriteReq accesses(hits+misses) (Count)
system.cpu.l1d.LockedRMWWriteReq.accesses::total          918                       # number of LockedRMWWriteReq accesses(hits+misses) (Count)
system.cpu.l1d.ReadReq.hits::cpu.data        17543008                       # number of ReadReq hits (Count)
system.cpu.l1d.ReadReq.hits::total           17543008                       # number of ReadReq hits (Count)
system.cpu.l1d.ReadReq.misses::cpu.data         65328                       # number of ReadReq misses (Count)
system.cpu.l1d.ReadReq.misses::total            65328                       # number of ReadReq misses (Count)
system.cpu.l1d.ReadReq.missLatency::cpu.data  13671191545                       # number of ReadReq miss ticks (Tick)
system.cpu.l1d.ReadReq.missLatency::total  13671191545                       # number of ReadReq miss ticks (Tick)
system.cpu.l1d.ReadReq.accesses::cpu.data     17608336                       # number of ReadReq accesses(hits+misses) (Count)
system.cpu.l1d.ReadReq.accesses::total       17608336                       # number of ReadReq accesses(hits+misses) (Count)
system.cpu.l1d.ReadReq.missRate::cpu.data     0.003710                       # miss rate for ReadReq accesses (Ratio)
system.cpu.l1d.ReadReq.missRate::total       0.003710                       # miss rate for ReadReq accesses (Ratio)
system.cpu.l1d.ReadReq.avgMissLatency::cpu.data 209270.015078                       # average ReadReq miss latency ((Tick/Count))
system.cpu.l1d.ReadReq.avgMissLatency::total 209270.015078                       # average ReadReq miss latency ((Tick/Count))
system.cpu.l1d.ReadReq.mshrHits::cpu.data          426                       # number of ReadReq MSHR hits (Count)
system.cpu.l1d.ReadReq.mshrHits::total            426                       # number of ReadReq MSHR hits (Count)
system.cpu.l1d.ReadReq.mshrMisses::cpu.data        64902                       # number of ReadReq MSHR misses (Count)
system.cpu.l1d.ReadReq.mshrMisses::total        64902                       # number of ReadReq MSHR misses (Count)
system.cpu.l1d.ReadReq.mshrMissLatency::cpu.data  12703082415                       # number of ReadReq MSHR miss ticks (Tick)
system.cpu.l1d.ReadReq.mshrMissLatency::total  12703082415                       # number of ReadReq MSHR miss ticks (Tick)
system.cpu.l1d.ReadReq.mshrMissRate::cpu.data     0.003686                       # mshr miss rate for ReadReq accesses (Ratio)
system.cpu.l1d.ReadReq.mshrMissRate::total     0.003686                       # mshr miss rate for ReadReq accesses (Ratio)
system.cpu.l1d.ReadReq.avgMshrMissLatency::cpu.data 195727.133447                       # average ReadReq mshr miss latency ((Tick/Count))
system.cpu.l1d.ReadReq.avgMshrMissLatency::total 195727.133447                       # average ReadReq mshr miss latency ((Tick/Count))
system.cpu.l1d.SoftPFReq.hits::cpu.data             1                       # number of SoftPFReq hits (Count)
system.cpu.l1d.SoftPFReq.hits::total                1                       # number of SoftPFReq hits (Count)
system.cpu.l1d.SoftPFReq.misses::cpu.data            1                       # number of SoftPFReq misses (Count)
system.cpu.l1d.SoftPFReq.misses::total              1                       # number of SoftPFReq misses (Count)
system.cpu.l1d.SoftPFReq.accesses::cpu.data            2                       # number of SoftPFReq accesses(hits+misses) (Count)
system.cpu.l1d.SoftPFReq.accesses::total            2                       # number of SoftPFReq accesses(hits+misses) (Count)
system.cpu.l1d.SoftPFReq.missRate::cpu.data     0.500000                       # miss rate for SoftPFReq accesses (Ratio)
system.cpu.l1d.SoftPFReq.missRate::total     0.500000                       # miss rate for SoftPFReq accesses (Ratio)
system.cpu.l1d.SoftPFReq.mshrMisses::cpu.data            1                       # number of SoftPFReq MSHR misses (Count)
system.cpu.l1d.SoftPFReq.mshrMisses::total            1                       # number of SoftPFReq MSHR misses (Count)
system.cpu.l1d.SoftPFReq.mshrMissLatency::cpu.data       199995                       # number of SoftPFReq MSHR miss ticks (Tick)
system.cpu.l1d.SoftPFReq.mshrMissLatency::total       199995                       # number of SoftPFReq MSHR miss ticks (Tick)
system.cpu.l1d.SoftPFReq.mshrMissRate::cpu.data     0.500000                       # mshr miss rate for SoftPFReq accesses (Ratio)
system.cpu.l1d.SoftPFReq.mshrMissRate::total     0.500000                       # mshr miss rate for SoftPFReq accesses (Ratio)
system.cpu.l1d.SoftPFReq.avgMshrMissLatency::cpu.data       199995                       # average SoftPFReq mshr miss latency ((Tick/Count))
system.cpu.l1d.SoftPFReq.avgMshrMissLatency::total       199995                       # average SoftPFReq mshr miss latency ((Tick/Count))
system.cpu.l1d.WriteReq.hits::cpu.data        8327130                       # number of WriteReq hits (Count)
system.cpu.l1d.WriteReq.hits::total           8327130                       # number of WriteReq hits (Count)
system.cpu.l1d.WriteReq.misses::cpu.data        13864                       # number of WriteReq misses (Count)
system.cpu.l1d.WriteReq.misses::total           13864                       # number of WriteReq misses (Count)
system.cpu.l1d.WriteReq.missLatency::cpu.data   2882914592                       # number of WriteReq miss ticks (Tick)
system.cpu.l1d.WriteReq.missLatency::total   2882914592                       # number of WriteReq miss ticks (Tick)
system.cpu.l1d.WriteReq.accesses::cpu.data      8340994                       # number of WriteReq accesses(hits+misses) (Count)
system.cpu.l1d.WriteReq.accesses::total       8340994                       # number of WriteReq accesses(hits+misses) (Count)
system.cpu.l1d.WriteReq.missRate::cpu.data     0.001662                       # miss rate for WriteReq accesses (Ratio)
system.cpu.l1d.WriteReq.missRate::total      0.001662                       # miss rate for WriteReq accesses (Ratio)
system.cpu.l1d.WriteReq.avgMissLatency::cpu.data 207942.483555                       # average WriteReq miss latency ((Tick/Count))
system.cpu.l1d.WriteReq.avgMissLatency::total 207942.483555                       # average WriteReq miss latency ((Tick/Count))
system.cpu.l1d.WriteReq.mshrHits::cpu.data         1315                       # number of WriteReq MSHR hits (Count)
system.cpu.l1d.WriteReq.mshrHits::total          1315                       # number of WriteReq MSHR hits (Count)
system.cpu.l1d.WriteReq.mshrMisses::cpu.data        12549                       # number of WriteReq MSHR misses (Count)
system.cpu.l1d.WriteReq.mshrMisses::total        12549                       # number of WriteReq MSHR misses (Count)
system.cpu.l1d.WriteReq.mshrMissLatency::cpu.data   2452925342                       # number of WriteReq MSHR miss ticks (Tick)
system.cpu.l1d.WriteReq.mshrMissLatency::total   2452925342                       # number of WriteReq MSHR miss ticks (Tick)
system.cpu.l1d.WriteReq.mshrMissRate::cpu.data     0.001504                       # mshr miss rate for WriteReq accesses (Ratio)
system.cpu.l1d.WriteReq.mshrMissRate::total     0.001504                       # mshr miss rate for WriteReq accesses (Ratio)
system.cpu.l1d.WriteReq.avgMshrMissLatency::cpu.data 195467.793609                       # average WriteReq mshr miss latency ((Tick/Count))
system.cpu.l1d.WriteReq.avgMshrMissLatency::total 195467.793609                       # average WriteReq mshr miss latency ((Tick/Count))
system.cpu.l1d.power_state.pwrStateResidencyTicks::UNDEFINED 2086668858641                       # Cumulative time (in ticks) in various power states (Tick)
system.cpu.l1d.tags.tagsInUse              255.979451                       # Average ticks per tags in use ((Tick/Count))
system.cpu.l1d.tags.totalRefs                 1435291                       # Total number of references to valid blocks. (Count)
system.cpu.l1d.tags.sampledRefs                 77258                       # Sample count of references to valid blocks. (Count)
system.cpu.l1d.tags.avgRefs                 18.577895                       # Average number of references to valid blocks. ((Count/Count))
system.cpu.l1d.tags.warmupTick                 546653                       # The tick when the warmup percentage was hit. (Tick)
system.cpu.l1d.tags.occupancies::cpu.data   255.979451                       # Average occupied blocks per tick, per requestor ((Count/Tick))
system.cpu.l1d.tags.avgOccs::cpu.data        0.999920                       # Average percentage of cache occupancy ((Ratio/Tick))
system.cpu.l1d.tags.avgOccs::total           0.999920                       # Average percentage of cache occupancy ((Ratio/Tick))
system.cpu.l1d.tags.occupanciesTaskId::1024          256                       # Occupied blocks per task id (Count)
system.cpu.l1d.tags.ageTaskId_1024::0               2                       # Occupied blocks per task id, per block age (Count)
system.cpu.l1d.tags.ageTaskId_1024::2               1                       # Occupied blocks per task id, per block age (Count)
system.cpu.l1d.tags.ageTaskId_1024::4             253                       # Occupied blocks per task id, per block age (Count)
system.cpu.l1d.tags.ratioOccsTaskId::1024            1                       # Ratio of occupied blocks and all blocks, per task id (Ratio)
system.cpu.l1d.tags.tagAccesses              51979850                       # Number of tag accesses (Count)
system.cpu.l1d.tags.dataAccesses             51979850                       # Number of data accesses (Count)
system.cpu.l1d.tags.power_state.pwrStateResidencyTicks::UNDEFINED 2086668858641                       # Cumulative time (in ticks) in various power states (Tick)
system.cpu.l1i.demandHits::cpu.inst          27175878                       # number of demand (read+write) hits (Count)
system.cpu.l1i.demandHits::total             27175878                       # number of demand (read+write) hits (Count)
system.cpu.l1i.overallHits::cpu.inst         27175878                       # number of overall hits (Count)
system.cpu.l1i.overallHits::total            27175878                       # number of overall hits (Count)
system.cpu.l1i.demandMisses::cpu.inst          209230                       # number of demand (read+write) misses (Count)
system.cpu.l1i.demandMisses::total             209230                       # number of demand (read+write) misses (Count)
system.cpu.l1i.overallMisses::cpu.inst         209230                       # number of overall misses (Count)
system.cpu.l1i.overallMisses::total            209230                       # number of overall misses (Count)
system.cpu.l1i.demandMissLatency::cpu.inst  44293759295                       # number of demand (read+write) miss ticks (Tick)
system.cpu.l1i.demandMissLatency::total   44293759295                       # number of demand (read+write) miss ticks (Tick)
system.cpu.l1i.overallMissLatency::cpu.inst  44293759295                       # number of overall miss ticks (Tick)
system.cpu.l1i.overallMissLatency::total  44293759295                       # number of overall miss ticks (Tick)
system.cpu.l1i.demandAccesses::cpu.inst      27385108                       # number of demand (read+write) accesses (Count)
system.cpu.l1i.demandAccesses::total         27385108                       # number of demand (read+write) accesses (Count)
system.cpu.l1i.overallAccesses::cpu.inst     27385108                       # number of overall (read+write) accesses (Count)
system.cpu.l1i.overallAccesses::total        27385108                       # number of overall (read+write) accesses (Count)
system.cpu.l1i.demandMissRate::cpu.inst      0.007640                       # miss rate for demand accesses (Ratio)
system.cpu.l1i.demandMissRate::total         0.007640                       # miss rate for demand accesses (Ratio)
system.cpu.l1i.overallMissRate::cpu.inst     0.007640                       # miss rate for overall accesses (Ratio)
system.cpu.l1i.overallMissRate::total        0.007640                       # miss rate for overall accesses (Ratio)
system.cpu.l1i.demandAvgMissLatency::cpu.inst 211698.892582                       # average overall miss latency in ticks ((Tick/Count))
system.cpu.l1i.demandAvgMissLatency::total 211698.892582                       # average overall miss latency in ticks ((Tick/Count))
system.cpu.l1i.overallAvgMissLatency::cpu.inst 211698.892582                       # average overall miss latency ((Tick/Count))
system.cpu.l1i.overallAvgMissLatency::total 211698.892582                       # average overall miss latency ((Tick/Count))
system.cpu.l1i.blockedCycles::no_mshrs              0                       # number of cycles access was blocked (Cycle)
system.cpu.l1i.blockedCycles::no_targets            0                       # number of cycles access was blocked (Cycle)
system.cpu.l1i.blockedCauses::no_mshrs              0                       # number of times access was blocked (Count)
system.cpu.l1i.blockedCauses::no_targets            0                       # number of times access was blocked (Count)
system.cpu.l1i.avgBlocked::no_mshrs               nan                       # average number of cycles each access was blocked ((Cycle/Count))
system.cpu.l1i.avgBlocked::no_targets             nan                       # average number of cycles each access was blocked ((Cycle/Count))
system.cpu.l1i.demandMshrMisses::cpu.inst       209230                       # number of demand (read+write) MSHR misses (Count)
system.cpu.l1i.demandMshrMisses::total         209230                       # number of demand (read+write) MSHR misses (Count)
system.cpu.l1i.overallMshrMisses::cpu.inst       209230                       # number of overall MSHR misses (Count)
system.cpu.l1i.overallMshrMisses::total        209230                       # number of overall MSHR misses (Count)
system.cpu.l1i.demandMshrMissLatency::cpu.inst  41504109038                       # number of demand (read+write) MSHR miss ticks (Tick)
system.cpu.l1i.demandMshrMissLatency::total  41504109038                       # number of demand (read+write) MSHR miss ticks (Tick)
system.cpu.l1i.overallMshrMissLatency::cpu.inst  41504109038                       # number of overall MSHR miss ticks (Tick)
system.cpu.l1i.overallMshrMissLatency::total  41504109038                       # number of overall MSHR miss ticks (Tick)
system.cpu.l1i.demandMshrMissRate::cpu.inst     0.007640                       # mshr miss ratio for demand accesses (Ratio)
system.cpu.l1i.demandMshrMissRate::total     0.007640                       # mshr miss ratio for demand accesses (Ratio)
system.cpu.l1i.overallMshrMissRate::cpu.inst     0.007640                       # mshr miss ratio for overall accesses (Ratio)
system.cpu.l1i.overallMshrMissRate::total     0.007640                       # mshr miss ratio for overall accesses (Ratio)
system.cpu.l1i.demandAvgMshrMissLatency::cpu.inst 198365.956306                       # average overall mshr miss latency ((Tick/Count))
system.cpu.l1i.demandAvgMshrMissLatency::total 198365.956306                       # average overall mshr miss latency ((Tick/Count))
system.cpu.l1i.overallAvgMshrMissLatency::cpu.inst 198365.956306                       # average overall mshr miss latency ((Tick/Count))
system.cpu.l1i.overallAvgMshrMissLatency::total 198365.956306                       # average overall mshr miss latency ((Tick/Count))
system.cpu.l1i.replacements                    208973                       # number of replacements (Count)
system.cpu.l1i.ReadReq.hits::cpu.inst        27175878                       # number of ReadReq hits (Count)
system.cpu.l1i.ReadReq.hits::total           27175878                       # number of ReadReq hits (Count)
system.cpu.l1i.ReadReq.misses::cpu.inst        209230                       # number of ReadReq misses (Count)
system.cpu.l1i.ReadReq.misses::total           209230                       # number of ReadReq misses (Count)
system.cpu.l1i.ReadReq.missLatency::cpu.inst  44293759295                       # number of ReadReq miss ticks (Tick)
system.cpu.l1i.ReadReq.missLatency::total  44293759295                       # number of ReadReq miss ticks (Tick)
system.cpu.l1i.ReadReq.accesses::cpu.inst     27385108                       # number of ReadReq accesses(hits+misses) (Count)
system.cpu.l1i.ReadReq.accesses::total       27385108                       # number of ReadReq accesses(hits+misses) (Count)
system.cpu.l1i.ReadReq.missRate::cpu.inst     0.007640                       # miss rate for ReadReq accesses (Ratio)
system.cpu.l1i.ReadReq.missRate::total       0.007640                       # miss rate for ReadReq accesses (Ratio)
system.cpu.l1i.ReadReq.avgMissLatency::cpu.inst 211698.892582                       # average ReadReq miss latency ((Tick/Count))
system.cpu.l1i.ReadReq.avgMissLatency::total 211698.892582                       # average ReadReq miss latency ((Tick/Count))
system.cpu.l1i.ReadReq.mshrMisses::cpu.inst       209230                       # number of ReadReq MSHR misses (Count)
system.cpu.l1i.ReadReq.mshrMisses::total       209230                       # number of ReadReq MSHR misses (Count)
system.cpu.l1i.ReadReq.mshrMissLatency::cpu.inst  41504109038                       # number of ReadReq MSHR miss ticks (Tick)
system.cpu.l1i.ReadReq.mshrMissLatency::total  41504109038                       # number of ReadReq MSHR miss ticks (Tick)
system.cpu.l1i.ReadReq.mshrMissRate::cpu.inst     0.007640                       # mshr miss rate for ReadReq accesses (Ratio)
system.cpu.l1i.ReadReq.mshrMissRate::total     0.007640                       # mshr miss rate for ReadReq accesses (Ratio)
system.cpu.l1i.ReadReq.avgMshrMissLatency::cpu.inst 198365.956306                       # average ReadReq mshr miss latency ((Tick/Count))
system.cpu.l1i.ReadReq.avgMshrMissLatency::total 198365.956306                       # average ReadReq mshr miss latency ((Tick/Count))
system.cpu.l1i.power_state.pwrStateResidencyTicks::UNDEFINED 2086668858641                       # Cumulative time (in ticks) in various power states (Tick)
system.cpu.l1i.tags.tagsInUse              255.977110                       # Average ticks per tags in use ((Tick/Count))
system.cpu.l1i.tags.totalRefs                 8869862                       # Total number of references to valid blocks. (Count)
system.cpu.l1i.tags.sampledRefs                208973                       # Sample count of references to valid blocks. (Count)
system.cpu.l1i.tags.avgRefs                 42.445014                       # Average number of references to valid blocks. ((Count/Count))
system.cpu.l1i.tags.warmupTick                 213328                       # The tick when the warmup percentage was hit. (Tick)
system.cpu.l1i.tags.occupancies::cpu.inst   255.977110                       # Average occupied blocks per tick, per requestor ((Count/Tick))
system.cpu.l1i.tags.avgOccs::cpu.inst        0.999911                       # Average percentage of cache occupancy ((Ratio/Tick))
system.cpu.l1i.tags.avgOccs::total           0.999911                       # Average percentage of cache occupancy ((Ratio/Tick))
system.cpu.l1i.tags.occupanciesTaskId::1024          256                       # Occupied blocks per task id (Count)
system.cpu.l1i.tags.ageTaskId_1024::0               6                       # Occupied blocks per task id, per block age (Count)
system.cpu.l1i.tags.ageTaskId_1024::1               5                       # Occupied blocks per task id, per block age (Count)
system.cpu.l1i.tags.ageTaskId_1024::2               3                       # Occupied blocks per task id, per block age (Count)
system.cpu.l1i.tags.ageTaskId_1024::4             242                       # Occupied blocks per task id, per block age (Count)
system.cpu.l1i.tags.ratioOccsTaskId::1024            1                       # Ratio of occupied blocks and all blocks, per task id (Ratio)
system.cpu.l1i.tags.tagAccesses              54979445                       # Number of tag accesses (Count)
system.cpu.l1i.tags.dataAccesses             54979445                       # Number of data accesses (Count)
system.cpu.l1i.tags.power_state.pwrStateResidencyTicks::UNDEFINED 2086668858641                       # Cumulative time (in ticks) in various power states (Tick)
system.cpu.mmu.dtb.rdAccesses                18106728                       # TLB accesses on read requests (Count)
system.cpu.mmu.dtb.wrAccesses                12104345                       # TLB accesses on write requests (Count)
system.cpu.mmu.dtb.rdMisses                     16553                       # TLB misses on read requests (Count)
system.cpu.mmu.dtb.wrMisses                       785                       # TLB misses on write requests (Count)
system.cpu.mmu.dtb.walker.power_state.pwrStateResidencyTicks::UNDEFINED 2086668858641                       # Cumulative time (in ticks) in various power states (Tick)
system.cpu.mmu.itb.rdAccesses                       0                       # TLB accesses on read requests (Count)
system.cpu.mmu.itb.wrAccesses                27385254                       # TLB accesses on write requests (Count)
system.cpu.mmu.itb.rdMisses                         0                       # TLB misses on read requests (Count)
system.cpu.mmu.itb.wrMisses                       543                       # TLB misses on write requests (Count)
system.cpu.mmu.itb.walker.power_state.pwrStateResidencyTicks::UNDEFINED 2086668858641                       # Cumulative time (in ticks) in various power states (Tick)
system.cpu.power_state.pwrStateResidencyTicks::ON 2086668858641                       # Cumulative time (in ticks) in various power states (Tick)
system.cpu.thread_0.numInsts                 65173846                       # Number of Instructions committed (Count)
system.cpu.thread_0.numOps                  108228450                       # Number of Ops committed (Count)
system.cpu.thread_0.numMemRefs                      0                       # Number of Memory References (Count)
system.cpu.workload.numSyscalls                 20310                       # Number of system calls (Count)
system.mem_ctrl.avgPriority_writebacks::samples     12867.00                       # Average QoS priority value for accepted requests (Count)
system.mem_ctrl.avgPriority_cpu.inst::samples    209230.00                       # Average QoS priority value for accepted requests (Count)
system.mem_ctrl.avgPriority_cpu.data::samples     61722.00                       # Average QoS priority value for accepted requests (Count)
system.mem_ctrl.priorityMinLatency       0.000000018750                       # per QoS priority minimum request to response latency (Second)
system.mem_ctrl.priorityMaxLatency       0.014142345600                       # per QoS priority maximum request to response latency (Second)
system.mem_ctrl.numReadWriteTurnArounds           715                       # Number of turnarounds from READ to WRITE (Count)
system.mem_ctrl.numWriteReadTurnArounds           715                       # Number of turnarounds from WRITE to READ (Count)
system.mem_ctrl.numStayReadState              1101077                       # Number of times bus staying in READ state (Count)
system.mem_ctrl.numStayWriteState               12163                       # Number of times bus staying in WRITE state (Count)
system.mem_ctrl.readReqs                       286744                       # Number of read requests accepted (Count)
system.mem_ctrl.writeReqs                       23255                       # Number of write requests accepted (Count)
system.mem_ctrl.readBursts                     286744                       # Number of controller read bursts, including those serviced by the write queue (Count)
system.mem_ctrl.writeBursts                     23255                       # Number of controller write bursts, including those merged in the write queue (Count)
system.mem_ctrl.servicedByWrQ                   15792                       # Number of controller read bursts serviced by the write queue (Count)
system.mem_ctrl.mergedWrBursts                  10388                       # Number of controller write bursts merged with an existing one (Count)
system.mem_ctrl.neitherReadNorWriteReqs             0                       # Number of requests that are neither read nor write (Count)
system.mem_ctrl.avgRdQLen                        1.00                       # Average read queue length when enqueuing ((Count/Tick))
system.mem_ctrl.avgWrQLen                       17.31                       # Average write queue length when enqueuing ((Count/Tick))
system.mem_ctrl.numRdRetry                          0                       # Number of times read queue was full causing retry (Count)
system.mem_ctrl.numWrRetry                          0                       # Number of times write queue was full causing retry (Count)
system.mem_ctrl.readPktSize::0                      0                       # Read request sizes (log2) (Count)
system.mem_ctrl.readPktSize::1                      0                       # Read request sizes (log2) (Count)
system.mem_ctrl.readPktSize::2                      0                       # Read request sizes (log2) (Count)
system.mem_ctrl.readPktSize::3                      0                       # Read request sizes (log2) (Count)
system.mem_ctrl.readPktSize::4                      0                       # Read request sizes (log2) (Count)
system.mem_ctrl.readPktSize::5                      0                       # Read request sizes (log2) (Count)
system.mem_ctrl.readPktSize::6                 286744                       # Read request sizes (log2) (Count)
system.mem_ctrl.writePktSize::0                     0                       # Write request sizes (log2) (Count)
system.mem_ctrl.writePktSize::1                     0                       # Write request sizes (log2) (Count)
system.mem_ctrl.writePktSize::2                     0                       # Write request sizes (log2) (Count)
system.mem_ctrl.writePktSize::3                     0                       # Write request sizes (log2) (Count)
system.mem_ctrl.writePktSize::4                     0                       # Write request sizes (log2) (Count)
system.mem_ctrl.writePktSize::5                     0                       # Write request sizes (log2) (Count)
system.mem_ctrl.writePktSize::6                 23255                       # Write request sizes (log2) (Count)
system.mem_ctrl.rdQLenPdf::0                   270587                       # What read queue length does an incoming req see (Count)
system.mem_ctrl.rdQLenPdf::1                      362                       # What read queue length does an incoming req see (Count)
system.mem_ctrl.rdQLenPdf::2                        3                       # What read queue length does an incoming req see (Count)
system.mem_ctrl.rdQLenPdf::3                        0                       # What read queue length does an incoming req see (Count)
system.mem_ctrl.rdQLenPdf::4                        0                       # What read queue length does an incoming req see (Count)
system.mem_ctrl.rdQLenPdf::5                        0                       # What read queue length does an incoming req see (Count)
system.mem_ctrl.rdQLenPdf::6                        0                       # What read queue length does an incoming req see (Count)
system.mem_ctrl.rdQLenPdf::7                        0                       # What read queue length does an incoming req see (Count)
system.mem_ctrl.rdQLenPdf::8                        0                       # What read queue length does an incoming req see (Count)
system.mem_ctrl.rdQLenPdf::9                        0                       # What read queue length does an incoming req see (Count)
system.mem_ctrl.rdQLenPdf::10                       0                       # What read queue length does an incoming req see (Count)
system.mem_ctrl.rdQLenPdf::11                       0                       # What read queue length does an incoming req see (Count)
system.mem_ctrl.rdQLenPdf::12                       0                       # What read queue length does an incoming req see (Count)
system.mem_ctrl.rdQLenPdf::13                       0                       # What read queue length does an incoming req see (Count)
system.mem_ctrl.rdQLenPdf::14                       0                       # What read queue length does an incoming req see (Count)
system.mem_ctrl.rdQLenPdf::15                       0                       # What read queue length does an incoming req see (Count)
system.mem_ctrl.rdQLenPdf::16                       0                       # What read queue length does an incoming req see (Count)
system.mem_ctrl.rdQLenPdf::17                       0                       # What read queue length does an incoming req see (Count)
system.mem_ctrl.rdQLenPdf::18                       0                       # What read queue length does an incoming req see (Count)
system.mem_ctrl.rdQLenPdf::19                       0                       # What read queue length does an incoming req see (Count)
system.mem_ctrl.rdQLenPdf::20                       0                       # What read queue length does an incoming req see (Count)
system.mem_ctrl.rdQLenPdf::21                       0                       # What read queue length does an incoming req see (Count)
system.mem_ctrl.rdQLenPdf::22                       0                       # What read queue length does an incoming req see (Count)
system.mem_ctrl.rdQLenPdf::23                       0                       # What read queue length does an incoming req see (Count)
system.mem_ctrl.rdQLenPdf::24                       0                       # What read queue length does an incoming req see (Count)
system.mem_ctrl.rdQLenPdf::25                       0                       # What read queue length does an incoming req see (Count)
system.mem_ctrl.rdQLenPdf::26                       0                       # What read queue length does an incoming req see (Count)
system.mem_ctrl.rdQLenPdf::27                       0                       # What read queue length does an incoming req see (Count)
system.mem_ctrl.rdQLenPdf::28                       0                       # What read queue length does an incoming req see (Count)
system.mem_ctrl.rdQLenPdf::29                       0                       # What read queue length does an incoming req see (Count)
system.mem_ctrl.rdQLenPdf::30                       0                       # What read queue length does an incoming req see (Count)
system.mem_ctrl.rdQLenPdf::31                       0                       # What read queue length does an incoming req see (Count)
system.mem_ctrl.wrQLenPdf::0                        1                       # What write queue length does an incoming req see (Count)
system.mem_ctrl.wrQLenPdf::1                        1                       # What write queue length does an incoming req see (Count)
system.mem_ctrl.wrQLenPdf::2                        1                       # What write queue length does an incoming req see (Count)
system.mem_ctrl.wrQLenPdf::3                        1                       # What write queue length does an incoming req see (Count)
system.mem_ctrl.wrQLenPdf::4                        1                       # What write queue length does an incoming req see (Count)
system.mem_ctrl.wrQLenPdf::5                        1                       # What write queue length does an incoming req see (Count)
system.mem_ctrl.wrQLenPdf::6                        1                       # What write queue length does an incoming req see (Count)
system.mem_ctrl.wrQLenPdf::7                        1                       # What write queue length does an incoming req see (Count)
system.mem_ctrl.wrQLenPdf::8                        1                       # What write queue length does an incoming req see (Count)
system.mem_ctrl.wrQLenPdf::9                        1                       # What write queue length does an incoming req see (Count)
system.mem_ctrl.wrQLenPdf::10                       1                       # What write queue length does an incoming req see (Count)
system.mem_ctrl.wrQLenPdf::11                       1                       # What write queue length does an incoming req see (Count)
system.mem_ctrl.wrQLenPdf::12                       1                       # What write queue length does an incoming req see (Count)
system.mem_ctrl.wrQLenPdf::13                       1                       # What write queue length does an incoming req see (Count)
system.mem_ctrl.wrQLenPdf::14                       1                       # What write queue length does an incoming req see (Count)
system.mem_ctrl.wrQLenPdf::15                     701                       # What write queue length does an incoming req see (Count)
system.mem_ctrl.wrQLenPdf::16                     711                       # What write queue length does an incoming req see (Count)
[...]
system.mem_ctrl.dram.bwInstRead::total       51445872                       # Instruction read bandwidth from this memory ((Byte/Second))
system.mem_ctrl.dram.bwWrite::writebacks      9719940                       # Write bandwidth from this memory ((Byte/Second))
system.mem_ctrl.dram.bwWrite::total           9719940                       # Write bandwidth from this memory ((Byte/Second))
system.mem_ctrl.dram.bwTotal::writebacks      9719940                       # Total bandwidth to/from this memory ((Byte/Second))
system.mem_ctrl.dram.bwTotal::cpu.inst       51445872                       # Total bandwidth to/from this memory ((Byte/Second))
system.mem_ctrl.dram.bwTotal::cpu.data       26850664                       # Total bandwidth to/from this memory ((Byte/Second))
system.mem_ctrl.dram.bwTotal::total          88016476                       # Total bandwidth to/from this memory ((Byte/Second))
system.mem_ctrl.dram.readBursts                  2866                       # Number of DRAM read bursts (Count)
system.mem_ctrl.dram.writeBursts                  341                       # Number of DRAM write bursts (Count)
system.mem_ctrl.dram.perBankRdBursts::0           150                       # Per bank write bursts (Count)
system.mem_ctrl.dram.perBankRdBursts::1           212                       # Per bank write bursts (Count)
system.mem_ctrl.dram.perBankRdBursts::2           150                       # Per bank write bursts (Count)
system.mem_ctrl.dram.perBankRdBursts::3           152                       # Per bank write bursts (Count)
system.mem_ctrl.dram.perBankRdBursts::4           142                       # Per bank write bursts (Count)
system.mem_ctrl.dram.perBankRdBursts::5           300                       # Per bank write bursts (Count)
system.mem_ctrl.dram.perBankRdBursts::6           246                       # Per bank write bursts (Count)
system.mem_ctrl.dram.perBankRdBursts::7            82                       # Per bank write bursts (Count)
system.mem_ctrl.dram.perBankRdBursts::8           187                       # Per bank write bursts (Count)
system.mem_ctrl.dram.perBankRdBursts::9           208                       # Per bank write bursts (Count)
system.mem_ctrl.dram.perBankRdBursts::10          158                       # Per bank write bursts (Count)
system.mem_ctrl.dram.perBankRdBursts::11          231                       # Per bank write bursts (Count)
system.mem_ctrl.dram.perBankRdBursts::12          117                       # Per bank write bursts (Count)
system.mem_ctrl.dram.perBankRdBursts::13          203                       # Per bank write bursts (Count)
system.mem_ctrl.dram.perBankRdBursts::14          207                       # Per bank write bursts (Count)
system.mem_ctrl.dram.perBankRdBursts::15          121                       # Per bank write bursts (Count)
system.mem_ctrl.dram.perBankWrBursts::0            20                       # Per bank write bursts (Count)
system.mem_ctrl.dram.perBankWrBursts::1            29                       # Per bank write bursts (Count)
system.mem_ctrl.dram.perBankWrBursts::2            11                       # Per bank write bursts (Count)
system.mem_ctrl.dram.perBankWrBursts::3             5                       # Per bank write bursts (Count)
system.mem_ctrl.dram.perBankWrBursts::4             3                       # Per bank write bursts (Count)
system.mem_ctrl.dram.perBankWrBursts::5            56                       # Per bank write bursts (Count)
system.mem_ctrl.dram.perBankWrBursts::6             5                       # Per bank write bursts (Count)
system.mem_ctrl.dram.perBankWrBursts::7            54                       # Per bank write bursts (Count)
system.mem_ctrl.dram.perBankWrBursts::8             5                       # Per bank write bursts (Count)
system.mem_ctrl.dram.perBankWrBursts::9             9                       # Per bank write bursts (Count)
system.mem_ctrl.dram.perBankWrBursts::10           19                       # Per bank write bursts (Count)
system.mem_ctrl.dram.perBankWrBursts::11           24                       # Per bank write bursts (Count)
system.mem_ctrl.dram.perBankWrBursts::12           23                       # Per bank write bursts (Count)
system.mem_ctrl.dram.perBankWrBursts::13           28                       # Per bank write bursts (Count)
system.mem_ctrl.dram.perBankWrBursts::14           45                       # Per bank write bursts (Count)
system.mem_ctrl.dram.perBankWrBursts::15            5                       # Per bank write bursts (Count)
system.mem_ctrl.dram.totQLat                 33043604                       # Total ticks spent queuing (Tick)
system.mem_ctrl.dram.totBusLat               14330000                       # Total ticks spent in databus transfers (Tick)
system.mem_ctrl.dram.totMemAccLat            86781104                       # Total ticks spent from burst creation until serviced by the DRAM (Tick)
system.mem_ctrl.dram.avgQLat                 11529.52                       # Average queueing delay per DRAM burst ((Tick/Count))
system.mem_ctrl.dram.avgBusLat                5000.00                       # Average bus latency per DRAM burst ((Tick/Count))
system.mem_ctrl.dram.avgMemAccLat            30279.52                       # Average memory access latency per DRAM burst ((Tick/Count))
system.mem_ctrl.dram.readRowHits                 1591                       # Number of row buffer hits during reads (Count)
system.mem_ctrl.dram.writeRowHits                 232                       # Number of row buffer hits during writes (Count)
system.mem_ctrl.dram.readRowHitRate             55.51                       # Row buffer hit rate for reads (Ratio)
system.mem_ctrl.dram.writeRowHitRate            68.04                       # Row buffer hit rate for writes (Ratio)
system.mem_ctrl.dram.bytesPerActivate::samples         1382                       # Bytes accessed per row activation (Byte)
system.mem_ctrl.dram.bytesPerActivate::mean   148.237337                       # Bytes accessed per row activation (Byte)
system.mem_ctrl.dram.bytesPerActivate::gmean   113.801302                       # Bytes accessed per row activation (Byte)
system.mem_ctrl.dram.bytesPerActivate::stdev   137.784650                       # Bytes accessed per row activation (Byte)
system.mem_ctrl.dram.bytesPerActivate::0-127          675     48.84%     48.84% # Bytes accessed per row activation (Byte)
system.mem_ctrl.dram.bytesPerActivate::128-255          477     34.52%     83.36% # Bytes accessed per row activation (Byte)
system.mem_ctrl.dram.bytesPerActivate::256-383          134      9.70%     93.05% # Bytes accessed per row activation (Byte)
system.mem_ctrl.dram.bytesPerActivate::384-511           51      3.69%     96.74% # Bytes accessed per row activation (Byte)
system.mem_ctrl.dram.bytesPerActivate::512-639           19      1.37%     98.12% # Bytes accessed per row activation (Byte)
system.mem_ctrl.dram.bytesPerActivate::640-767            8      0.58%     98.70% # Bytes accessed per row activation (Byte)
system.mem_ctrl.dram.bytesPerActivate::768-895            9      0.65%     99.35% # Bytes accessed per row activation (Byte)
system.mem_ctrl.dram.bytesPerActivate::896-1023            5      0.36%     99.71% # Bytes accessed per row activation (Byte)
system.mem_ctrl.dram.bytesPerActivate::1024-1151            4      0.29%    100.00% # Bytes accessed per row activation (Byte)
system.mem_ctrl.dram.bytesPerActivate::total         1382                       # Bytes accessed per row activation (Byte)
system.mem_ctrl.dram.dramBytesRead             183424                       # Total bytes read (Byte)
system.mem_ctrl.dram.dramBytesWritten           21824                       # Total bytes written (Byte)
system.mem_ctrl.dram.avgRdBW                76.954002                       # Average DRAM read bandwidth in MiBytes/s ((Byte/Second))
system.mem_ctrl.dram.avgWrBW                 9.156076                       # Average DRAM write bandwidth in MiBytes/s ((Byte/Second))
system.mem_ctrl.dram.peakBW                  12800.00                       # Theoretical peak bandwidth in MiByte/s ((Byte/Second))
system.mem_ctrl.dram.busUtil                     0.67                       # Data bus utilization in percentage (Ratio)
system.mem_ctrl.dram.busUtilRead                 0.60                       # Data bus utilization in percentage for reads (Ratio)
system.mem_ctrl.dram.busUtilWrite                0.07                       # Data bus utilization in percentage for writes (Ratio)
system.mem_ctrl.dram.pageHitRate                56.84                       # Row buffer hit rate, read and write combined (Ratio)
system.mem_ctrl.dram.power_state.pwrStateResidencyTicks::UNDEFINED   2383553743                       # Cumulative time (in ticks) in various power states (Tick)
system.mem_ctrl.dram.rank0.actEnergy          5133660                       # Energy for activate commands per rank (pJ) (Joule)
system.mem_ctrl.dram.rank0.preEnergy          2728605                       # Energy for precharge commands per rank (pJ) (Joule)
system.mem_ctrl.dram.rank0.readEnergy        10245900                       # Energy for read commands per rank (pJ) (Joule)
system.mem_ctrl.dram.rank0.writeEnergy         955260                       # Energy for write commands per rank (pJ) (Joule)
system.mem_ctrl.dram.rank0.refreshEnergy 188079840.000000                       # Energy for refresh commands per rank (pJ) (Joule)
system.mem_ctrl.dram.rank0.actBackEnergy    557226300                       # Energy for active background per rank (pJ) (Joule)
system.mem_ctrl.dram.rank0.preBackEnergy    446041440                       # Energy for precharge background per rank (pJ) (Joule)
system.mem_ctrl.dram.rank0.actPowerDownEnergy            0                       # Energy for active power-down per rank (pJ) (Joule)
system.mem_ctrl.dram.rank0.prePowerDownEnergy            0                       # Energy for precharge power-down per rank (pJ) (Joule)
system.mem_ctrl.dram.rank0.selfRefreshEnergy            0                       # Energy for self refresh per rank (pJ) (Joule)
system.mem_ctrl.dram.rank0.totalEnergy     1210411005                       # Total energy per rank (pJ) (Joule)
system.mem_ctrl.dram.rank0.averagePower    507.817795                       # Core power per rank (mW) (Watt)
system.mem_ctrl.dram.rank0.totalIdleTime            0                       # Total Idle time Per DRAM Rank (Tick)
system.mem_ctrl.dram.rank0.pwrStateTime::IDLE   1154262394                       # Time in different power states (Tick)
system.mem_ctrl.dram.rank0.pwrStateTime::REF     79560000                       # Time in different power states (Tick)
system.mem_ctrl.dram.rank0.pwrStateTime::SREF            0                       # Time in different power states (Tick)
system.mem_ctrl.dram.rank0.pwrStateTime::PRE_PDN            0                       # Time in different power states (Tick)
system.mem_ctrl.dram.rank0.pwrStateTime::ACT   1149731349                       # Time in different power states (Tick)
system.mem_ctrl.dram.rank0.pwrStateTime::ACT_PDN            0                       # Time in different power states (Tick)
system.mem_ctrl.dram.rank1.actEnergy          4748100                       # Energy for activate commands per rank (pJ) (Joule)
system.mem_ctrl.dram.rank1.preEnergy          2516085                       # Energy for precharge commands per rank (pJ) (Joule)
system.mem_ctrl.dram.rank1.readEnergy        10224480                       # Energy for read commands per rank (pJ) (Joule)
system.mem_ctrl.dram.rank1.writeEnergy         824760                       # Energy for write commands per rank (pJ) (Joule)
system.mem_ctrl.dram.rank1.refreshEnergy 188079840.000000                       # Energy for refresh commands per rank (pJ) (Joule)
system.mem_ctrl.dram.rank1.actBackEnergy    605196930                       # Energy for active background per rank (pJ) (Joule)
system.mem_ctrl.dram.rank1.preBackEnergy    405645120                       # Energy for precharge background per rank (pJ) (Joule)
system.mem_ctrl.dram.rank1.actPowerDownEnergy            0                       # Energy for active power-down per rank (pJ) (Joule)
system.mem_ctrl.dram.rank1.prePowerDownEnergy            0                       # Energy for precharge power-down per rank (pJ) (Joule)
system.mem_ctrl.dram.rank1.selfRefreshEnergy            0                       # Energy for self refresh per rank (pJ) (Joule)
system.mem_ctrl.dram.rank1.totalEnergy     1217235315                       # Total energy per rank (pJ) (Joule)
system.mem_ctrl.dram.rank1.averagePower    510.680877                       # Core power per rank (mW) (Watt)
system.mem_ctrl.dram.rank1.totalIdleTime            0                       # Total Idle time Per DRAM Rank (Tick)
system.mem_ctrl.dram.rank1.pwrStateTime::IDLE   1048913484                       # Time in different power states (Tick)
system.mem_ctrl.dram.rank1.pwrStateTime::REF     79560000                       # Time in different power states (Tick)
system.mem_ctrl.dram.rank1.pwrStateTime::SREF            0                       # Time in different power states (Tick)
system.mem_ctrl.dram.rank1.pwrStateTime::PRE_PDN            0                       # Time in different power states (Tick)
system.mem_ctrl.dram.rank1.pwrStateTime::ACT   1255080259                       # Time in different power states (Tick)
system.mem_ctrl.dram.rank1.pwrStateTime::ACT_PDN            0                       # Time in different power states (Tick)
system.mem_ctrl.power_state.pwrStateResidencyTicks::UNDEFINED   2383553743                       # Cumulative time (in ticks) in various power states (Tick)
system.membus.transDist::ReadResp                2813                       # Transaction distribution (Count)
system.membus.transDist::WritebackDirty           362                       # Transaction distribution (Count)
system.membus.transDist::CleanEvict              2554                       # Transaction distribution (Count)
system.membus.transDist::ReadExReq                103                       # Transaction distribution (Count)
system.membus.transDist::ReadExResp               103                       # Transaction distribution (Count)
system.membus.transDist::ReadSharedReq           2812                       # Transaction distribution (Count)
system.membus.pktCount_system.cpu.l1d.mem_side_port::system.mem_ctrl.port         3000                       # Packet count per connected requestor and responder (Count)
system.membus.pktCount_system.cpu.l1d.mem_side_port::total         3000                       # Packet count per connected requestor and responder (Count)
system.membus.pktCount_system.cpu.l1i.mem_side_port::system.mem_ctrl.port         5747                       # Packet count per connected requestor and responder (Count)
system.membus.pktCount_system.cpu.l1i.mem_side_port::total         5747                       # Packet count per connected requestor and responder (Count)
system.membus.pktCount::total                    8747                       # Packet count per connected requestor and responder (Count)
system.membus.pktSize_system.cpu.l1d.mem_side_port::system.mem_ctrl.port        87168                       # Cumulative packet size per connected requestor and responder (Byte)
system.membus.pktSize_system.cpu.l1d.mem_side_port::total        87168                       # Cumulative packet size per connected requestor and responder (Byte)
system.membus.pktSize_system.cpu.l1i.mem_side_port::system.mem_ctrl.port       122624                       # Cumulative packet size per connected requestor and responder (Byte)
system.membus.pktSize_system.cpu.l1i.mem_side_port::total       122624                       # Cumulative packet size per connected requestor and responder (Byte)
system.membus.pktSize::total                   209792                       # Cumulative packet size per connected requestor and responder (Byte)
system.membus.snoops                                0                       # Total snoops (Count)
system.membus.snoopTraffic                          0                       # Total snoop traffic (Byte)
system.membus.snoopFanout::samples               2915                       # Request fanout histogram (Count)
system.membus.snoopFanout::mean              0.001372                       # Request fanout histogram (Count)
system.membus.snoopFanout::stdev             0.037024                       # Request fanout histogram (Count)
system.membus.snoopFanout::underflows               0      0.00%      0.00% # Request fanout histogram (Count)
system.membus.snoopFanout::0                     2911     99.86%     99.86% # Request fanout histogram (Count)
system.membus.snoopFanout::1                        4      0.14%    100.00% # Request fanout histogram (Count)
system.membus.snoopFanout::2                        0      0.00%    100.00% # Request fanout histogram (Count)
system.membus.snoopFanout::overflows                0      0.00%    100.00% # Request fanout histogram (Count)
system.membus.snoopFanout::min_value                0                       # Request fanout histogram (Count)
system.membus.snoopFanout::max_value                1                       # Request fanout histogram (Count)
system.membus.snoopFanout::total                 2915                       # Request fanout histogram (Count)
system.membus.power_state.pwrStateResidencyTicks::UNDEFINED   2383553743                       # Cumulative time (in ticks) in various power states (Tick)
system.membus.reqLayer2.occupancy            97050907                       # Layer occupancy (ticks) (Tick)
system.membus.reqLayer2.utilization               0.0                       # Layer utilization (Ratio)
system.membus.respLayer2.occupancy           67871913                       # Layer occupancy (ticks) (Tick)
system.membus.respLayer2.utilization              0.0                       # Layer utilization (Ratio)
system.membus.respLayer3.occupancy          130257592                       # Layer occupancy (ticks) (Tick)
system.membus.respLayer3.utilization              0.1                       # Layer utilization (Ratio)
system.membus.snoop_filter.totRequests           5831                       # Total number of requests made to the snoop filter. (Count)
system.membus.snoop_filter.hitSingleRequests         2918                       # Number of requests hitting in the snoop filter with a single holder of the requested data. (Count)
system.membus.snoop_filter.hitMultiRequests            2                       # Number of requests hitting in the snoop filter with multiple (>1) holders of the requested data. (Count)
system.membus.snoop_filter.totSnoops                0                       # Total number of snoops made to the snoop filter. (Count)
system.membus.snoop_filter.hitSingleSnoops            0                       # Number of snoops hitting in the snoop filter with a single holder of the requested data. (Count)
system.membus.snoop_filter.hitMultiSnoops            0                       # Number of snoops hitting in the snoop filter with multiple (>1) holders of the requested data. (Count)
system.workload.inst.arm                            0                       # number of arm instructions executed (Count)
system.workload.inst.quiesce                        0                       # number of quiesce instructions executed (Count)
system.cpu.idleCycles                           19191                       # Total number of cycles that the object has spent stopped (Unspecified)
system.cpu.tickCycles                          159580                       # Number of cycles that the object actually ticked (Unspecified)

---------- End Simulation Statistics   ----------
